Chloroquine
  DSViewer          3D                             0

 22 23  0  0  0  0  0  0  0  0999 V2000
   -0.3180   -0.6420    0.3232 C   0  0  0  0  0  0  0  0  0  1
   -0.1174   -2.0836    0.1568 C   0  0  0  0  0  0  0  0  0  2
    1.0879   -2.5707   -0.0900 C   0  0  0  0  0  0  0  0  0  3
    0.6615    0.1635    0.2558 N   0  0  0  0  0  0  0  0  0  4
    1.9648   -0.2680   -0.0102 C   0  0  0  0  0  0  0  0  0  5
    2.2326   -1.5782   -0.2087 C   0  0  0  0  0  0  0  0  0  6
    3.0564    0.7121   -0.0563 C   0  0  0  0  0  0  0  0  0  7
    3.6107   -1.9530   -0.5207 C   0  0  0  0  0  0  0  0  0  8
    4.5906   -1.0632   -0.5617 C   0  0  0  0  0  0  0  0  0  9
    4.3039    0.3311   -0.3034 C   0  0  0  0  0  0  0  0  0 10
    5.5904    1.4813   -0.3073 Cl  0  0  0  0  0  0  0  0  0 11
    1.1911   -4.0380   -0.1884 N   0  0  0  0  0  0  0  0  0 12
    2.3981   -4.8873   -0.2362 C   0  0  0  0  0  0  0  0  0 13
    1.9387   -6.3576   -0.3753 C   0  0  0  0  0  0  0  0  0 14
    3.2408   -4.7992    1.0778 C   0  0  0  0  0  0  0  0  0 15
    4.6151   -5.5564    0.9688 C   0  0  0  0  0  0  0  0  0 16
    5.7402   -4.6064    0.4283 C   0  0  0  0  0  0  0  0  0 17
    7.0660   -5.2859    0.4091 N   0  0  0  0  0  0  0  0  0 18
    8.1161   -4.2129    0.1543 C   0  0  0  0  0  0  0  0  0 19
    9.5984   -4.6307    0.4038 C   0  0  0  0  0  0  0  0  0 20
    6.9903   -6.3670   -0.6515 C   0  0  0  0  0  0  0  0  0 21
    8.1595   -7.3891   -0.6711 C   0  0  0  0  0  0  0  0  0 22
  1  4  2  0  0  0
  1  2  1  0  0  0
  2  3  2  0  0  0
  3  6  1  0  0  0
  3 12  1  0  0  0
  4  5  1  0  0  0
  5  7  1  0  0  0
  5  6  2  0  0  0
  6  8  1  0  0  0
  7 10  2  0  0  0
  8  9  2  0  0  0
  9 10  1  0  0  0
 10 11  1  0  0  0
 12 13  1  0  0  0
 13 14  1  0  0  0
 13 15  1  0  0  0
 15 16  1  0  0  0
 16 17  1  0  0  0
 17 18  1  0  0  0
 18 19  1  0  0  0
 18 21  1  0  0  0
 19 20  1  0  0  0
 21 22  1  0  0  0
M  END
> <Clean Energy>
19.5596

> <Lysotarcker IC50 uM>
11.1

> <Cytotox IC50 uM>
148.3

> <Active>
1

> <Name 2>
Chloroquine

$$$$
Chlorpromazine
  SciTegic09101421012D

 21 23  0  0  0  0            999 V2000
    7.2767   -8.4910    0.0000 C   0  0
    7.2767   -6.9909    0.0000 N   0  0
    5.9766   -6.2454    0.0000 C   0  0
    5.9766   -4.7454    0.0000 C   0  0
    4.6766   -3.9908    0.0000 C   0  0
    4.6766   -2.4907    0.0000 N   0  0
    5.9766   -1.7452    0.0000 C   0  0
    7.2767   -2.4907    0.0000 C   0  0
    8.5768   -1.7452    0.0000 C   0  0
    8.5768   -0.2452    0.0000 C   0  0
    7.2767    0.5094    0.0000 C   0  0
    5.9766   -0.2452    0.0000 C   0  0
    4.6766    0.5094    0.0000 S   0  0
    3.3856   -0.2452    0.0000 C   0  0
    3.3856   -1.7452    0.0000 C   0  0
    2.0856   -2.4907    0.0000 C   0  0
    0.7855   -1.7452    0.0000 C   0  0
   -0.5146   -2.4907    0.0000 Cl  0  0
    0.7855   -0.2452    0.0000 C   0  0
    2.0856    0.5094    0.0000 C   0  0
    8.5768   -6.2454    0.0000 C   0  0
  1  2  1  0
  2  3  1  0
  2 21  1  0
  3  4  1  0
  4  5  1  0
  5  6  1  0
  6  7  1  0
  6 15  1  0
  7  8  1  0
  7 12  2  0
  8  9  2  0
  9 10  1  0
 10 11  2  0
 11 12  1  0
 12 13  1  0
 13 14  1  0
 14 15  1  0
 14 20  2  0
 15 16  2  0
 16 17  1  0
 17 18  1  0
 17 19  2  0
 19 20  1  0
M  END
> <Name>
Chlorpromazine

> <Lysotarcker IC50 uM>
5.8

> <Cytotox IC50 uM>
20.9

> <Active>
1

> <Name 2>
Chlorpromazine

$$$$
Thioridazine
  SciTegic09101421012D

 25 28  0  0  0  0            999 V2000
    8.5741   -4.6896    0.0000 C   0  0
    8.5741   -6.1896    0.0000 S   0  0
    7.2688   -6.9396    0.0000 C   0  0
    7.2688   -8.4398    0.0000 C   0  0
    5.9733   -9.1898    0.0000 C   0  0
    4.6778   -8.4398    0.0000 C   0  0
    4.6778   -6.9396    0.0000 C   0  0
    5.9733   -6.1896    0.0000 C   0  0
    3.3824   -6.1896    0.0000 N   0  0
    3.3824   -4.6896    0.0000 C   0  0
    2.0772   -3.9495    0.0000 C   0  0
    2.0772   -2.4493    0.0000 C   0  0
    3.3824   -1.6993    0.0000 C   0  0
    3.3824   -0.1993    0.0000 C   0  0
    2.0772    0.5507    0.0000 C   0  0
    0.7817   -0.1993    0.0000 C   0  0
    0.7817   -1.6993    0.0000 N   0  0
   -0.5138   -2.4493    0.0000 C   0  0
    2.0772   -6.9396    0.0000 C   0  0
    2.0772   -8.4398    0.0000 C   0  0
    3.3824   -9.1898    0.0000 S   0  0
    0.7817   -9.1898    0.0000 C   0  0
   -0.5138   -8.4398    0.0000 C   0  0
   -0.5138   -6.9396    0.0000 C   0  0
    0.7817   -6.1896    0.0000 C   0  0
  1  2  1  0
  2  3  1  0
  3  4  1  0
  3  8  2  0
  4  5  2  0
  5  6  1  0
  6  7  2  0
  6 21  1  0
  7  8  1  0
  7  9  1  0
  9 10  1  0
  9 19  1  0
 10 11  1  0
 11 12  1  0
 12 13  1  0
 12 17  1  0
 13 14  1  0
 14 15  1  0
 15 16  1  0
 16 17  1  0
 17 18  1  0
 19 20  1  0
 19 25  2  0
 20 21  1  0
 20 22  2  0
 22 23  1  0
 23 24  2  0
 24 25  1  0
M  END
> <Name>
Thioridazine

> <Lysotarcker IC50 uM>
1.5

> <Cytotox IC50 uM>
11.4

> <Active>
1

> <Name 2>
Thioridazine

$$$$
Aripiprazole
  SciTegic09101421012D

 30 33  0  0  0  0            999 V2000
   -1.1951   -6.3821    0.0000 O   0  0
    0.1174   -5.6322    0.0000 C   0  0
    1.4090   -6.3821    0.0000 N   0  0
    2.7214   -5.6322    0.0000 C   0  0
    2.7214   -4.1322    0.0000 C   0  0
    4.0130   -3.3822    0.0000 C   0  0
    5.3045   -4.1322    0.0000 C   0  0
    5.3045   -5.6322    0.0000 C   0  0
    6.6170   -6.3821    0.0000 O   0  0
    7.9295   -5.6322    0.0000 C   0  0
    9.2211   -6.3821    0.0000 C   0  0
   10.5335   -5.6322    0.0000 C   0  0
   11.8251   -6.3821    0.0000 C   0  0
   13.1376   -5.6322    0.0000 N   0  0
   14.4291   -6.3821    0.0000 C   0  0
   15.7416   -5.6322    0.0000 C   0  0
   15.7416   -4.1322    0.0000 N   0  0
   17.0332   -3.3822    0.0000 C   0  0
   18.3456   -4.1322    0.0000 C   0  0
   19.6372   -3.3822    0.0000 C   0  0
   19.6372   -1.8615    0.0000 C   0  0
   18.3456   -1.1115    0.0000 C   0  0
   18.3456    0.3884    0.0000 Cl  0  0
   17.0332   -1.8615    0.0000 C   0  0
   15.7416   -1.1115    0.0000 Cl  0  0
   14.4291   -3.3822    0.0000 C   0  0
   13.1376   -4.1322    0.0000 C   0  0
    4.0130   -6.3821    0.0000 C   0  0
    1.4090   -3.3822    0.0000 C   0  0
    0.1174   -4.1322    0.0000 C   0  0
  1  2  2  0
  2  3  1  0
  2 30  1  0
  3  4  1  0
  4  5  2  0
  4 28  1  0
  5  6  1  0
  5 29  1  0
  6  7  2  0
  7  8  1  0
  8  9  1  0
  8 28  2  0
  9 10  1  0
 10 11  1  0
 11 12  1  0
 12 13  1  0
 13 14  1  0
 14 15  1  0
 14 27  1  0
 15 16  1  0
 16 17  1  0
 17 18  1  0
 17 26  1  0
 18 19  2  0
 18 24  1  0
 19 20  1  0
 20 21  2  0
 21 22  1  0
 22 23  1  0
 22 24  2  0
 24 25  1  0
 26 27  1  0
 29 30  1  0
M  END
> <Name>
Aripiprazole

> <Lysotarcker IC50 uM>
19.3

> <Cytotox IC50 uM>
24

> <Active>
1

> <Name 2>
Aripiprazole

$$$$
risperidone
  SciTegic09101421012D

 30 34  0  0  0  0            999 V2000
   -0.8659   -9.9753    0.0000 F   0  0
   -0.5844   -4.6719    0.0000 O   0  0
   10.8515   -3.8897    0.0000 O   0  0
   12.1656   -1.6839    0.0000 N   0  0
    0.6047   -3.7958    0.0000 N   0  0
   10.8515    0.5845    0.0000 N   0  0
    5.7203   -2.3878    0.0000 N   0  0
    1.3712   -6.0642    0.0000 C   0  0
    1.8092   -4.6563    0.0000 C   0  0
   -0.1150   -6.0799    0.0000 C   0  0
    3.1077   -3.8897    0.0000 C   0  0
    9.5531   -1.6839    0.0000 C   0  0
   10.8515   -2.3878    0.0000 C   0  0
   12.1656   -0.1195    0.0000 C   0  0
    9.5531   -0.1821    0.0000 C   0  0
    2.1378   -7.3941    0.0000 C   0  0
   -0.8659   -7.3627    0.0000 C   0  0
   -0.1150   -8.6769    0.0000 C   0  0
    3.1077   -2.3878    0.0000 C   0  0
    4.4217   -4.6563    0.0000 C   0  0
    8.2859   -2.3878    0.0000 C   0  0
   13.5267   -2.3878    0.0000 C   0  0
    1.4025   -8.6769    0.0000 C   0  0
   13.5267    0.5845    0.0000 C   0  0
    4.4217   -1.6369    0.0000 C   0  0
    5.7203   -3.8897    0.0000 C   0  0
    7.0344   -1.6839    0.0000 C   0  0
   14.7782   -1.6839    0.0000 C   0  0
   14.7782   -0.1821    0.0000 C   0  0
    8.2859    0.5845    0.0000 C   0  0
  1 18  1  0
  2  5  1  0
  2 10  1  0
  3 13  2  0
  4 13  1  0
  4 14  1  0
  4 22  1  0
  5  9  2  0
  6 14  2  0
  6 15  1  0
  7 25  1  0
  7 26  1  0
  7 27  1  0
  8  9  1  0
  8 10  2  0
  8 16  1  0
  9 11  1  0
 10 17  1  0
 11 19  1  0
 11 20  1  0
 12 13  1  0
 12 15  2  0
 12 21  1  0
 14 24  1  0
 15 30  1  0
 16 23  2  0
 17 18  2  0
 18 23  1  0
 19 25  1  0
 20 26  1  0
 21 27  1  0
 22 28  1  0
 24 29  1  0
 28 29  1  0
M  END
> <Name>
risperidone

> <Lysotarcker IC50 uM>
>150

> <Cytotox IC50 uM>
>150

> <Active>
0

> <Name 2>
risperidone

$$$$
desipramine
  SciTegic09101421012D

 20 22  0  0  0  0            999 V2000
    7.8514   -8.1530    0.0000 C   0  0
    7.5141   -6.6919    0.0000 N   0  0
    6.0875   -6.2509    0.0000 C   0  0
    5.7504   -4.7811    0.0000 C   0  0
    4.3151   -4.3401    0.0000 C   0  0
    3.9779   -2.8789    0.0000 N   0  0
    5.1538   -1.9451    0.0000 C   0  0
    6.4507   -2.6973    0.0000 C   0  0
    7.7562   -1.9451    0.0000 C   0  0
    7.7562   -0.4408    0.0000 C   0  0
    6.4507    0.3114    0.0000 C   0  0
    5.1538   -0.4408    0.0000 C   0  0
    3.9779    0.4930    0.0000 C   0  0
    2.5168    0.1559    0.0000 C   0  0
    1.8684   -1.1930    0.0000 C   0  0
    2.5168   -2.5418    0.0000 C   0  0
    1.6695   -3.7868    0.0000 C   0  0
    0.1737   -3.6743    0.0000 C   0  0
   -0.4748   -2.3256    0.0000 C   0  0
    0.3726   -1.0805    0.0000 C   0  0
  1  2  1  0
  2  3  1  0
  3  4  1  0
  4  5  1  0
  5  6  1  0
  6  7  1  0
  6 16  1  0
  7  8  1  0
  7 12  2  0
  8  9  2  0
  9 10  1  0
 10 11  2  0
 11 12  1  0
 12 13  1  0
 13 14  1  0
 14 15  1  0
 15 16  1  0
 15 20  2  0
 16 17  2  0
 17 18  1  0
 18 19  2  0
 19 20  1  0
M  END
> <Name>
desipramine

> <Lysotarcker IC50 uM>
4.6

> <Cytotox IC50 uM>
10.7

> <Active>
1

> <Name 2>
desipramine

$$$$
imipramine
  SciTegic09101421012D

 21 23  0  0  0  0            999 V2000
    7.8049   -8.1478    0.0000 C   0  0
    7.4689   -6.6859    0.0000 N   0  0
    6.0342   -6.2500    0.0000 C   0  0
    5.7073   -4.7881    0.0000 C   0  0
    4.2726   -4.3431    0.0000 C   0  0
    3.9366   -2.8812    0.0000 N   0  0
    5.1080   -1.9459    0.0000 C   0  0
    6.4065   -2.6996    0.0000 C   0  0
    7.7050   -1.9459    0.0000 C   0  0
    7.7050   -0.4477    0.0000 C   0  0
    6.4065    0.3060    0.0000 C   0  0
    5.1080   -0.4477    0.0000 C   0  0
    3.9366    0.4876    0.0000 C   0  0
    2.4747    0.1517    0.0000 C   0  0
    1.8300   -1.2013    0.0000 C   0  0
    2.4747   -2.5452    0.0000 C   0  0
    1.6303   -3.7893    0.0000 C   0  0
    0.1411   -3.6711    0.0000 C   0  0
   -0.5127   -2.3273    0.0000 C   0  0
    0.3317   -1.0833    0.0000 C   0  0
    8.5676   -5.6689    0.0000 C   0  0
  1  2  1  0
  2  3  1  0
  2 21  1  0
  3  4  1  0
  4  5  1  0
  5  6  1  0
  6  7  1  0
  6 16  1  0
  7  8  1  0
  7 12  2  0
  8  9  2  0
  9 10  1  0
 10 11  2  0
 11 12  1  0
 12 13  1  0
 13 14  1  0
 14 15  1  0
 15 16  1  0
 15 20  2  0
 16 17  2  0
 17 18  1  0
 18 19  2  0
 19 20  1  0
M  END
> <Name>
imipramine

> <Lysotarcker IC50 uM>
10.7

> <Cytotox IC50 uM>
30.1

> <Active>
1

> <Name 2>
imipramine

$$$$
nortryptyline
  SciTegic09101421012D

 20 22  0  0  0  0            999 V2000
    7.5646    0.3290    0.0000 N   0  0
    3.6452   -1.8537    0.0000 C   0  0
    2.2977   -2.4516    0.0000 C   0  0
    5.0783   -2.5275    0.0000 C   0  0
    1.9181   -3.9605    0.0000 C   0  0
    5.3819   -3.9605    0.0000 C   0  0
    2.8956   -5.1657    0.0000 C   0  0
    4.4804   -5.1657    0.0000 C   0  0
    1.2349   -1.3981    0.0000 C   0  0
    6.2076   -1.5500    0.0000 C   0  0
    3.6452   -0.3448    0.0000 C   0  0
    0.4851   -4.3400    0.0000 C   0  0
    6.8149   -4.4919    0.0000 C   0  0
   -0.1887   -1.8537    0.0000 C   0  0
    7.6405   -2.0056    0.0000 C   0  0
   -0.5683   -3.2867    0.0000 C   0  0
    7.9443   -3.4290    0.0000 C   0  0
    5.0024    0.3290    0.0000 C   0  0
    6.2835   -0.4207    0.0000 C   0  0
    8.9218   -0.4207    0.0000 C   0  0
  1 19  1  0
  1 20  1  0
  2  3  1  0
  2  4  1  0
  2 11  2  0
  3  5  1  0
  3  9  2  0
  4  6  1  0
  4 10  2  0
  5  7  1  0
  5 12  2  0
  6  8  1  0
  6 13  2  0
  7  8  1  0
  9 14  1  0
 10 15  1  0
 11 18  1  0
 12 16  1  0
 13 17  1  0
 14 16  2  0
 15 17  2  0
 18 19  1  0
M  END
> <Name>
nortryptyline

> <Lysotarcker IC50 uM>
10.6

> <Cytotox IC50 uM>
33.8

> <Active>
1

> <Name 2>
nortryptyline

$$$$
clomipramine
  SciTegic09101421012D

 22 24  0  0  0  0            999 V2000
   -0.5888   -2.2299    0.0000 Cl  0  0
    4.4418   -3.2707    0.0000 N   0  0
    8.3396   -1.0973    0.0000 N   0  0
    3.0132   -3.8727    0.0000 C   0  0
    5.7171   -3.9543    0.0000 C   0  0
    2.7173   -5.3727    0.0000 C   0  0
    6.0845   -5.4543    0.0000 C   0  0
    1.9622   -2.9033    0.0000 C   0  0
    3.6152   -6.5767    0.0000 C   0  0
    5.1152   -6.5767    0.0000 C   0  0
    4.4418   -1.7707    0.0000 C   0  0
    1.2071   -5.7501    0.0000 C   0  0
    6.8396   -2.9747    0.0000 C   0  0
    0.5337   -3.2707    0.0000 C   0  0
    7.5131   -5.9032    0.0000 C   0  0
    0.1663   -4.7809    0.0000 C   0  0
    8.3396   -3.4238    0.0000 C   0  0
    8.6355   -4.9236    0.0000 C   0  0
    5.7171   -1.0973    0.0000 C   0  0
    6.9926   -1.8523    0.0000 C   0  0
    9.6151   -1.9238    0.0000 C   0  0
    8.3396    0.4027    0.0000 C   0  0
  1 14  1  0
  2  4  1  0
  2  5  1  0
  2 11  1  0
  3 20  1  0
  3 21  1  0
  3 22  1  0
  4  6  1  0
  4  8  2  0
  5  7  1  0
  5 13  2  0
  6  9  1  0
  6 12  2  0
  7 10  1  0
  7 15  2  0
  8 14  1  0
  9 10  1  0
 11 19  1  0
 12 16  1  0
 13 17  1  0
 14 16  2  0
 15 18  1  0
 17 18  2  0
 19 20  1  0
M  END
> <Name>
clomipramine

> <Lysotarcker IC50 uM>
12.4

> <Cytotox IC50 uM>
14.5

> <Active>
1

> <Name 2>
clomipramine

$$$$
sertraline
  SciTegic09101421012D

 20 22  0  0  0  0            999 V2000
    0.9744   -9.1140    0.0000 Cl  0  0
    3.5779  -10.6243    0.0000 Cl  0  0
    3.6116   -0.1090    0.0000 N   0  0
    3.6003   -4.6172    0.0000 C   0  0  2  0  0  0
    2.2931   -3.8508    0.0000 C   0  0
    2.3044   -2.3518    0.0000 C   0  0
    3.5892   -6.1161    0.0000 C   0  0
    3.6116   -1.6079    0.0000 C   0  0  2  0  0  0
    4.8964   -3.8621    0.0000 C   0  0
    2.2931   -6.8600    0.0000 C   0  0
    4.9077   -2.3631    0.0000 C   0  0
    1.0083   -4.6059    0.0000 C   0  0
    4.8964   -6.8712    0.0000 C   0  0
    2.2818   -8.3590    0.0000 C   0  0
    1.0083   -1.6079    0.0000 C   0  0
    3.5779   -9.1140    0.0000 C   0  0
    4.8853   -8.3701    0.0000 C   0  0
   -0.2991   -3.8508    0.0000 C   0  0
   -0.2991   -2.3518    0.0000 C   0  0
    4.9190    0.6461    0.0000 C   0  0
  1 14  1  0
  2 16  1  0
  8  3  1  1
  3 20  1  0
  4  5  1  0
  4  7  1  1
  4  9  1  0
  5  6  1  0
  5 12  2  0
  6  8  1  0
  6 15  2  0
  7 10  2  0
  7 13  1  0
  8 11  1  0
  9 11  1  0
 10 14  1  0
 12 18  1  0
 13 17  2  0
 14 16  2  0
 15 19  1  0
 16 17  1  0
 18 19  2  0
M  END
> <Name>
sertraline

> <Lysotarcker IC50 uM>
6.6

> <Cytotox IC50 uM>
12.2

> <Active>
1

> <Name 2>
sertraline

$$$$
paroxetine
  SciTegic09101421012D

 26 29  0  0  0  0            999 V2000
    5.0023    0.5008    0.0000 F   0  0
    4.2506   -0.7974    0.0000 C   0  0
    2.7588   -0.7974    0.0000 C   0  0
    2.0073   -2.0843    0.0000 C   0  0
    2.7588   -3.3824    0.0000 C   0  0
    2.0073   -4.6806    0.0000 C   0  0  2  0  0  0
    3.4990   -4.6806    0.0000 H   0  0
    0.7090   -3.9405    0.0000 C   0  0
   -0.5892   -4.6806    0.0000 C   0  0
   -0.5892   -6.1839    0.0000 N   0  0
    0.7090   -6.9355    0.0000 C   0  0
    2.0073   -6.1839    0.0000 C   0  0  1  0  0  0
    2.7588   -7.4821    0.0000 H   0  0
    3.4990   -6.1839    0.0000 C   0  0
    4.6036   -6.1839    0.0000 O   0  0
    5.9019   -6.9355    0.0000 C   0  0
    5.9019   -8.4274    0.0000 C   0  0
    7.2001   -9.1789    0.0000 C   0  0
    8.4984   -8.4274    0.0000 C   0  0
    8.4984   -6.9355    0.0000 C   0  0
    7.2001   -6.1839    0.0000 C   0  0
    9.9219   -6.4686    0.0000 O   0  0
   10.7987   -7.6757    0.0000 C   0  0
    9.9219   -8.8942    0.0000 O   0  0
    4.2506   -3.3824    0.0000 C   0  0
    5.0023   -2.0843    0.0000 C   0  0
  1  2  1  0
  2  3  1  0
  2 26  2  0
  3  4  2  0
  4  5  1  0
  5  6  1  0
  5 25  2  0
  6  7  1  6
  6  8  1  0
  6 12  1  0
  8  9  1  0
  9 10  1  0
 10 11  1  0
 11 12  1  0
 12 13  1  1
 12 14  1  0
 14 15  1  0
 15 16  1  0
 16 17  1  0
 16 21  2  0
 17 18  2  0
 18 19  1  0
 19 20  2  0
 19 24  1  0
 20 21  1  0
 20 22  1  0
 22 23  1  0
 23 24  1  0
 25 26  1  0
M  END
> <Name>
paroxetine

> <Lysotarcker IC50 uM>
5.3

> <Cytotox IC50 uM>
10.7

> <Active>
1

> <Name 2>
paroxetine

$$$$
fluoxetine
  SciTegic09101421012D

 22 23  0  0  0  0            999 V2000
    6.0373    0.7056    0.0000 F   0  0
    7.5394   -0.7965    0.0000 F   0  0
    4.5479   -0.7965    0.0000 F   0  0
    6.0373   -6.7798    0.0000 O   0  0
    0.8560   -6.7798    0.0000 N   0  0
    4.7516   -7.5308    0.0000 C   0  0
    3.4530   -6.7798    0.0000 C   0  0
    4.7516   -9.0331    0.0000 C   0  0
    2.1546   -7.5308    0.0000 C   0  0
    6.0373   -9.7841    0.0000 C   0  0
    3.4530   -9.7841    0.0000 C   0  0
    6.0373   -5.2904    0.0000 C   0  0
    6.0373  -11.2735    0.0000 C   0  0
    3.4530  -11.2735    0.0000 C   0  0
    7.3357   -4.5392    0.0000 C   0  0
    4.7516   -4.5392    0.0000 C   0  0
    6.0373   -2.2861    0.0000 C   0  0
    4.7516  -12.0246    0.0000 C   0  0
   -0.4424   -7.5308    0.0000 C   0  0
    7.3357   -3.0371    0.0000 C   0  0
    4.7516   -3.0371    0.0000 C   0  0
    6.0373   -0.7965    0.0000 C   0  0
  1 22  1  0
  2 22  1  0
  3 22  1  0
  4  6  1  0
  4 12  1  0
  5  9  1  0
  5 19  1  0
  6  7  1  0
  6  8  1  0
  7  9  1  0
  8 10  2  0
  8 11  1  0
 10 13  1  0
 11 14  2  0
 12 15  2  0
 12 16  1  0
 13 18  2  0
 14 18  1  0
 15 20  1  0
 16 21  2  0
 17 20  2  0
 17 21  1  0
 17 22  1  0
M  END
> <Name>
fluoxetine

> <Lysotarcker IC50 uM>
6.5

> <Cytotox IC50 uM>
13.9

> <Active>
1

> <Name 2>
fluoxetine

$$$$
felbamate
  SciTegic09101421012D

 17 17  0  0  0  0            999 V2000
    0.3185   -7.2732    0.0000 N   0  0
    1.8184   -7.2732    0.0000 C   0  0
    2.5729   -8.5732    0.0000 O   0  0
    2.5729   -5.9732    0.0000 O   0  0
    1.8184   -4.6733    0.0000 C   0  0
    2.5729   -3.3824    0.0000 C   0  0
    1.8184   -2.0824    0.0000 C   0  0
    2.5729   -0.7825    0.0000 C   0  0
    1.8184    0.5176    0.0000 C   0  0
    0.3185    0.5176    0.0000 C   0  0
   -0.4270   -0.7825    0.0000 C   0  0
    0.3185   -2.0824    0.0000 C   0  0
    4.0729   -3.3824    0.0000 C   0  0
    4.8184   -2.0824    0.0000 O   0  0
    6.3184   -2.0824    0.0000 C   0  0
    7.0729   -3.3824    0.0000 O   0  0
    7.0729   -0.7825    0.0000 N   0  0
  1  2  1  0
  2  3  2  0
  2  4  1  0
  4  5  1  0
  5  6  1  0
  6  7  1  0
  6 13  1  0
  7  8  1  0
  7 12  2  0
  8  9  2  0
  9 10  1  0
 10 11  2  0
 11 12  1  0
 13 14  1  0
 14 15  1  0
 15 16  2  0
 15 17  1  0
M  END
> <Name>
felbamate

> <Lysotarcker IC50 uM>
>150

> <Cytotox IC50 uM>
>150

> <Active>
0

> <Name 2>
felbamate

$$$$
sumatriptan
  SciTegic09101421012D

 20 21  0  0  0  0            999 V2000
   -0.5280   -7.3564    0.0000 C   0  0
   -0.5280   -5.8564    0.0000 N   0  0
    0.7764   -5.1017    0.0000 S   0  0
    0.0217   -3.8066    0.0000 O   0  0
    1.5217   -6.4061    0.0000 O   0  0
    2.0714   -4.3563    0.0000 C   0  0
    3.3665   -5.1017    0.0000 C   0  0
    3.3665   -6.6018    0.0000 C   0  0
    4.6709   -7.3564    0.0000 C   0  0
    5.9660   -6.6018    0.0000 C   0  0
    5.9660   -5.1017    0.0000 C   0  0
    4.6709   -4.3563    0.0000 C   0  0
    7.4008   -4.6451    0.0000 C   0  0
    7.8573   -3.2103    0.0000 C   0  0
    6.8604   -2.1017    0.0000 C   0  0
    7.3169   -0.6761    0.0000 N   0  0
    8.7891   -0.3594    0.0000 C   0  0
    6.3200    0.4419    0.0000 C   0  0
    8.2766   -5.8564    0.0000 C   0  0
    7.4008   -7.0676    0.0000 N   0  0
  1  2  1  0
  2  3  1  0
  3  4  2  0
  3  5  2  0
  3  6  1  0
  6  7  1  0
  7  8  1  0
  7 12  2  0
  8  9  2  0
  9 10  1  0
 10 11  2  0
 10 20  1  0
 11 12  1  0
 11 13  1  0
 13 14  1  0
 13 19  2  0
 14 15  1  0
 15 16  1  0
 16 17  1  0
 16 18  1  0
 19 20  1  0
M  END
> <Name>
sumatriptan

> <Lysotarcker IC50 uM>
>150

> <Cytotox IC50 uM>
>150

> <Active>
0

> <Name 2>
sumatriptan

$$$$
Astemizole
  SciTegic09101421012D

 34 38  0  0  0  0            999 V2000
   -0.4122    1.0062    0.0000 F   0  0
   13.0297  -16.5192    0.0000 O   0  0
    7.7721  -10.0173    0.0000 N   0  0
    5.5113   -6.1091    0.0000 N   0  0
    3.1454   -4.8999    0.0000 N   0  0
    3.1454   -7.3184    0.0000 N   0  0
    6.2649   -7.4059    0.0000 C   0  0
    5.5113   -8.7029    0.0000 C   0  0
    7.7721   -7.4059    0.0000 C   0  0
    6.2649  -10.0173    0.0000 C   0  0
    8.5257   -8.7029    0.0000 C   0  0
    8.5257  -11.3141    0.0000 C   0  0
   10.0329  -11.3141    0.0000 C   0  0
    4.0216   -6.1091    0.0000 C   0  0
   10.7865  -12.6111    0.0000 C   0  0
    1.7258   -5.3555    0.0000 C   0  0
    3.6010   -3.4627    0.0000 C   0  0
    1.7258   -6.8627    0.0000 C   0  0
    0.4114   -4.6020    0.0000 C   0  0
    2.6021   -2.3411    0.0000 C   0  0
   12.2762  -12.6111    0.0000 C   0  0
   10.0329  -13.9080    0.0000 C   0  0
    0.4114   -7.6163    0.0000 C   0  0
   -0.8855   -5.3555    0.0000 C   0  0
   -0.8855   -6.8627    0.0000 C   0  0
   13.0297  -13.9080    0.0000 C   0  0
   10.7865  -15.2223    0.0000 C   0  0
    1.1299   -2.6566    0.0000 C   0  0
    3.0752   -0.9215    0.0000 C   0  0
   12.2762  -15.2223    0.0000 C   0  0
    0.1310   -1.5350    0.0000 C   0  0
    2.0588    0.2001    0.0000 C   0  0
    0.6042   -0.1154    0.0000 C   0  0
   14.5369  -16.5192    0.0000 C   0  0
  1 33  1  0
  2 30  1  0
  2 34  1  0
  3 10  1  0
  3 11  1  0
  3 12  1  0
  4  7  1  0
  4 14  1  0
  5 14  1  0
  5 16  1  0
  5 17  1  0
  6 14  2  0
  6 18  1  0
  7  8  1  0
  7  9  1  0
  8 10  1  0
  9 11  1  0
 12 13  1  0
 13 15  1  0
 15 21  2  0
 15 22  1  0
 16 18  1  0
 16 19  2  0
 17 20  1  0
 18 23  2  0
 19 24  1  0
 20 28  2  0
 20 29  1  0
 21 26  1  0
 22 27  2  0
 23 25  1  0
 24 25  2  0
 26 30  2  0
 27 30  1  0
 28 31  1  0
 29 32  2  0
 31 33  2  0
 32 33  1  0
M  END
> <Name>
Astemizole

> <Lysotarcker IC50 uM>
0.95

> <Cytotox IC50 uM>
2.2

> <Active>
1

> <Name 2>
Astemizole

$$$$
Promethazine
  SciTegic09101421012D

 34 38  0  0  0  0            999 V2000
   -0.4122    1.0062    0.0000 F   0  0
   13.0297  -16.5192    0.0000 O   0  0
    7.7721  -10.0173    0.0000 N   0  0
    5.5113   -6.1091    0.0000 N   0  0
    3.1454   -4.8999    0.0000 N   0  0
    3.1454   -7.3184    0.0000 N   0  0
    6.2649   -7.4059    0.0000 C   0  0
    5.5113   -8.7029    0.0000 C   0  0
    7.7721   -7.4059    0.0000 C   0  0
    6.2649  -10.0173    0.0000 C   0  0
    8.5257   -8.7029    0.0000 C   0  0
    8.5257  -11.3141    0.0000 C   0  0
   10.0329  -11.3141    0.0000 C   0  0
    4.0216   -6.1091    0.0000 C   0  0
   10.7865  -12.6111    0.0000 C   0  0
    1.7258   -5.3555    0.0000 C   0  0
    3.6010   -3.4627    0.0000 C   0  0
    1.7258   -6.8627    0.0000 C   0  0
    0.4114   -4.6020    0.0000 C   0  0
    2.6021   -2.3411    0.0000 C   0  0
   12.2762  -12.6111    0.0000 C   0  0
   10.0329  -13.9080    0.0000 C   0  0
    0.4114   -7.6163    0.0000 C   0  0
   -0.8855   -5.3555    0.0000 C   0  0
   -0.8855   -6.8627    0.0000 C   0  0
   13.0297  -13.9080    0.0000 C   0  0
   10.7865  -15.2223    0.0000 C   0  0
    1.1299   -2.6566    0.0000 C   0  0
    3.0752   -0.9215    0.0000 C   0  0
   12.2762  -15.2223    0.0000 C   0  0
    0.1310   -1.5350    0.0000 C   0  0
    2.0588    0.2001    0.0000 C   0  0
    0.6042   -0.1154    0.0000 C   0  0
   14.5369  -16.5192    0.0000 C   0  0
  1 33  1  0
  2 30  1  0
  2 34  1  0
  3 10  1  0
  3 11  1  0
  3 12  1  0
  4  7  1  0
  4 14  1  0
  5 14  1  0
  5 16  1  0
  5 17  1  0
  6 14  2  0
  6 18  1  0
  7  8  1  0
  7  9  1  0
  8 10  1  0
  9 11  1  0
 12 13  1  0
 13 15  1  0
 15 21  2  0
 15 22  1  0
 16 18  1  0
 16 19  2  0
 17 20  1  0
 18 23  2  0
 19 24  1  0
 20 28  2  0
 20 29  1  0
 21 26  1  0
 22 27  2  0
 23 25  1  0
 24 25  2  0
 26 30  2  0
 27 30  1  0
 28 31  1  0
 29 32  2  0
 31 33  2  0
 32 33  1  0
M  END
> <Name>
Promethazine

> <Lysotarcker IC50 uM>
8.7

> <Cytotox IC50 uM>
38.7

> <Active>
1

> <Name 2>
Promethazine

$$$$
chlorpheniramine
  SciTegic09101421012D

 19 20  0  0  0  0            999 V2000
    3.4529   -9.8983    0.0000 Cl  0  0
    0.8620   -0.9087    0.0000 N   0  0
    6.0543   -3.9087    0.0000 N   0  0
    3.4529   -3.9087    0.0000 C   0  0
    2.1522   -3.1535    0.0000 C   0  0
    2.1522   -1.6535    0.0000 C   0  0
    3.4529   -5.3983    0.0000 C   0  0
    4.7536   -3.1535    0.0000 C   0  0
    2.1522   -6.1535    0.0000 C   0  0
    4.7536   -6.1535    0.0000 C   0  0
    4.7536   -1.6535    0.0000 C   0  0
    0.8620    0.5913    0.0000 C   0  0
   -0.4387   -1.6535    0.0000 C   0  0
    2.1522   -7.6535    0.0000 C   0  0
    4.7536   -7.6535    0.0000 C   0  0
    6.0543   -0.9087    0.0000 C   0  0
    3.4529   -8.3983    0.0000 C   0  0
    7.3445   -3.1535    0.0000 C   0  0
    7.3445   -1.6535    0.0000 C   0  0
  1 17  1  0
  2  6  1  0
  2 12  1  0
  2 13  1  0
  3  8  1  0
  3 18  2  0
  4  5  1  0
  4  7  1  0
  4  8  1  0
  5  6  1  0
  7  9  2  0
  7 10  1  0
  8 11  2  0
  9 14  1  0
 10 15  2  0
 11 16  1  0
 14 17  2  0
 15 17  1  0
 16 19  2  0
 18 19  1  0
M  END
> <Name>
chlorpheniramine

> <Lysotarcker IC50 uM>
>150

> <Cytotox IC50 uM>
>150

> <Active>
0

> <Name 2>
chlorpheniramine

$$$$
bepridil
  SciTegic09101421012D

 27 29  0  0  0  0            999 V2000
    8.3529   -1.8638    0.0000 O   0  0
    4.4401   -4.1202    0.0000 N   0  0
    8.3529   -4.8766    0.0000 N   0  0
    7.0748   -4.1202    0.0000 C   0  0
    4.4401   -2.6202    0.0000 C   0  0
    5.7183   -4.8766    0.0000 C   0  0
    3.1620   -4.8766    0.0000 C   0  0
    1.8707   -4.1202    0.0000 C   0  0
    7.0748   -2.6202    0.0000 C   0  0
    9.5659   -3.9767    0.0000 C   0  0
    8.8094   -6.3113    0.0000 C   0  0
    5.7183   -1.8638    0.0000 C   0  0
    3.1620   -1.8638    0.0000 C   0  0
   10.8441   -4.8766    0.0000 C   0  0
   10.3224   -6.3113    0.0000 C   0  0
    0.5144   -4.8766    0.0000 C   0  0
    1.8707   -2.6202    0.0000 C   0  0
    5.7183   -0.3507    0.0000 C   0  0
    3.1620   -0.3507    0.0000 C   0  0
    4.4401    0.3926    0.0000 C   0  0
   -0.7639   -4.1202    0.0000 C   0  0
    0.5144   -1.8638    0.0000 C   0  0
   -0.7639   -2.6202    0.0000 C   0  0
    9.6442   -2.6202    0.0000 C   0  0
   11.0005   -1.8638    0.0000 C   0  0
   12.2788   -2.6202    0.0000 C   0  0
   11.0005   -0.3507    0.0000 C   0  0
  1  9  1  0
  1 24  1  0
  2  5  1  0
  2  6  1  0
  2  7  1  0
  3  4  1  0
  3 10  1  0
  3 11  1  0
  4  6  1  0
  4  9  1  0
  5 12  2  0
  5 13  1  0
  7  8  1  0
  8 16  2  0
  8 17  1  0
 10 14  1  0
 11 15  1  0
 12 18  1  0
 13 19  2  0
 14 15  1  0
 16 21  1  0
 17 22  2  0
 18 20  2  0
 19 20  1  0
 21 23  2  0
 22 23  1  0
 24 25  1  0
 25 26  1  0
 25 27  1  0
M  END
> <Name>
bepridil

> <Lysotarcker IC50 uM>
14.5

> <Cytotox IC50 uM>
42.8

> <Active>
1

> <Name 2>
bepridil

$$$$
nicardipine
  SciTegic09101421012D

 35 37  0  0  0  0            999 V2000
    7.9545   -1.6140    0.0000 O   0  0
    0.1175   -1.6140    0.0000 O   0  0
    6.6635   -3.8868    0.0000 O   0  0
    1.4084   -3.8868    0.0000 O   0  0
    6.6635   -8.7601    0.0000 O   0  5
    8.2636   -5.8689    0.0000 O   0  0
    4.0087    0.6044    0.0000 N   0  0
    6.6635   -6.8507    0.0000 N   0  3
   11.8275   -2.3776    0.0000 N   0  0
    4.0087   -2.3776    0.0000 C   0  0
    5.2997   -1.6140    0.0000 C   0  0
    2.6995   -1.6140    0.0000 C   0  0
    4.0087   -3.8868    0.0000 C   0  0
    5.2997   -0.1593    0.0000 C   0  0
    2.6995   -0.1593    0.0000 C   0  0
    6.6635   -2.3776    0.0000 C   0  0
    1.4084   -2.3776    0.0000 C   0  0
    5.3724   -4.6506    0.0000 C   0  0
    2.6995   -4.6506    0.0000 C   0  0
    5.3724   -6.1053    0.0000 C   0  0
    6.6635    0.6044    0.0000 C   0  0
    1.4084    0.6044    0.0000 C   0  0
    2.6995   -6.1780    0.0000 C   0  0
    4.0815   -6.8507    0.0000 C   0  0
    9.2455   -2.3776    0.0000 C   0  0
   -1.1735   -2.3776    0.0000 C   0  0
   10.5365   -1.6140    0.0000 C   0  0
   13.1367   -1.6140    0.0000 C   0  0
   14.4278   -2.3776    0.0000 C   0  0
   11.8275   -3.8868    0.0000 C   0  0
   14.4278   -3.8868    0.0000 C   0  0
   15.7187   -1.6140    0.0000 C   0  0
   15.7187   -4.6506    0.0000 C   0  0
   17.0097   -2.3776    0.0000 C   0  0
   17.0097   -3.8868    0.0000 C   0  0
  1 16  1  0
  1 25  1  0
  2 17  1  0
  2 26  1  0
  3 16  2  0
  4 17  2  0
  5  8  1  0
  6  8  2  0
  7 14  1  0
  7 15  1  0
  8 20  1  0
  9 27  1  0
  9 28  1  0
  9 30  1  0
 10 11  1  0
 10 12  1  0
 10 13  1  0
 11 14  2  0
 11 16  1  0
 12 15  2  0
 12 17  1  0
 13 18  1  0
 13 19  2  0
 14 21  1  0
 15 22  1  0
 18 20  2  0
 19 23  1  0
 20 24  1  0
 23 24  2  0
 25 27  1  0
 28 29  1  0
 29 31  2  0
 29 32  1  0
 31 33  1  0
 32 34  2  0
 33 35  2  0
 34 35  1  0
M  CHG  2   5  -1   8   1
M  END
> <Name>
nicardipine

> <Lysotarcker IC50 uM>
70

> <Cytotox IC50 uM>
98

> <Active>
1

> <Name 2>
nicardipine

$$$$
nifedipine
  SciTegic09101421012D

 25 26  0  0  0  0            999 V2000
    0.4076   -1.5070    0.0000 O   0  0
    8.2061   -1.5070    0.0000 O   0  0
    1.7073   -3.6386    0.0000 O   0  0
    6.9168   -3.7530    0.0000 O   0  0
   -0.4243   -6.3836    0.0000 O   0  5
    3.4126   -3.8362    0.0000 O   0  0
    4.3069    0.7494    0.0000 N   0  0
    1.6969   -4.9696    0.0000 N   0  3
    4.3069   -2.2453    0.0000 C   0  0
    3.0072   -1.5070    0.0000 C   0  0
    5.6170   -1.5070    0.0000 C   0  0
    4.2965   -4.9696    0.0000 C   0  0
    3.0072    0.0008    0.0000 C   0  0
    5.6170    0.0008    0.0000 C   0  0
    2.9863   -5.7286    0.0000 C   0  0
    1.7073   -2.2453    0.0000 C   0  0
    6.9168   -2.2453    0.0000 C   0  0
    5.5963   -5.7286    0.0000 C   0  0
    2.9863   -7.2260    0.0000 C   0  0
    5.5963   -7.2260    0.0000 C   0  0
    1.7073    0.7494    0.0000 C   0  0
    6.9168    0.7494    0.0000 C   0  0
    4.2965   -7.9850    0.0000 C   0  0
   -0.8922   -2.2453    0.0000 C   0  0
    9.5060   -2.2453    0.0000 C   0  0
  1 16  1  0
  1 24  1  0
  2 17  1  0
  2 25  1  0
  3 16  2  0
  4 17  2  0
  5  8  1  0
  6  8  2  0
  7 13  1  0
  7 14  1  0
  8 15  1  0
  9 10  1  0
  9 11  1  0
  9 12  1  0
 10 13  2  0
 10 16  1  0
 11 14  2  0
 11 17  1  0
 12 15  1  0
 12 18  2  0
 13 21  1  0
 14 22  1  0
 15 19  2  0
 18 20  1  0
 19 23  1  0
 20 23  2  0
M  CHG  2   5  -1   8   1
M  END
> <Name>
nifedipine

> <Lysotarcker IC50 uM>
>150

> <Cytotox IC50 uM>
>150

> <Active>
0

> <Name 2>
nifedipine

$$$$
nadolol
  SciTegic09101421012D

 24 25  0  0  0  0            999 V2000
    5.8215   -0.7612    0.0000 O   0  0
    4.5229   -1.5119    0.0000 C   0  0
    4.5229   -3.0131    0.0000 C   0  0
    5.8215   -3.7636    0.0000 O   0  0
    5.8215   -5.2767    0.0000 C   0  0
    4.5229   -6.0274    0.0000 C   0  0
    4.5229   -7.5286    0.0000 C   0  0
    5.8215   -8.2791    0.0000 C   0  0
    7.1202   -7.5286    0.0000 C   0  0
    7.1202   -6.0274    0.0000 C   0  0
    8.4307   -5.2767    0.0000 C   0  0
    9.7293   -6.0274    0.0000 C   0  0  2  0  0  0
   11.2305   -6.0274    0.0000 H   0  0
   10.4800   -4.7167    0.0000 O   0  0
    9.7293   -7.5286    0.0000 C   0  0  1  0  0  0
   10.4800   -8.8272    0.0000 H   0  0
    8.4307   -8.2791    0.0000 C   0  0
   11.2305   -7.5286    0.0000 O   0  0
    3.2242   -0.7612    0.0000 C   0  0
    1.9255   -1.5119    0.0000 N   0  0
    0.6149   -0.7612    0.0000 C   0  0
    1.3656    0.5374    0.0000 C   0  0
   -0.1356   -2.0599    0.0000 C   0  0
   -0.6837   -0.0107    0.0000 C   0  0
  1  2  1  0
  2  3  1  0
  2 19  1  0
  3  4  1  0
  4  5  1  0
  5  6  1  0
  5 10  2  0
  6  7  2  0
  7  8  1  0
  8  9  2  0
  9 10  1  0
  9 17  1  0
 10 11  1  0
 11 12  1  0
 12 13  1  1
 12 14  1  0
 12 15  1  0
 15 16  1  1
 15 17  1  0
 15 18  1  0
 19 20  1  0
 20 21  1  0
 21 22  1  0
 21 23  1  0
 21 24  1  0
M  END
> <Name>
nadolol

> <Lysotarcker IC50 uM>
>150

> <Cytotox IC50 uM>
>150

> <Active>
0

> <Name 2>
nadolol

$$$$
Propranolol
  SciTegic09101421012D

 19 20  0  0  0  0            999 V2000
    4.6331   -3.8634    0.0000 O   0  0
    4.6331   -6.8523    0.0000 O   0  0
    2.0390   -8.3524    0.0000 N   0  0
    3.3360   -6.1078    0.0000 C   0  0
    2.0390   -6.8523    0.0000 C   0  0
    0.7419   -9.0967    0.0000 C   0  0
    3.3360   -4.6077    0.0000 C   0  0
   -0.5551   -8.3524    0.0000 C   0  0
    0.7419  -10.5968    0.0000 C   0  0
    4.6331   -2.3633    0.0000 C   0  0
    5.9301   -1.6189    0.0000 C   0  0
    5.9301   -0.1189    0.0000 C   0  0
    3.3360   -1.6189    0.0000 C   0  0
    7.2611   -2.4197    0.0000 C   0  0
    4.6331    0.6256    0.0000 C   0  0
    3.3360   -0.1189    0.0000 C   0  0
    7.2611    0.6820    0.0000 C   0  0
    8.6258   -1.6414    0.0000 C   0  0
    8.6258   -0.0850    0.0000 C   0  0
  1  7  1  0
  1 10  1  0
  2  4  1  0
  3  5  1  0
  3  6  1  0
  4  5  1  0
  4  7  1  0
  6  8  1  0
  6  9  1  0
 10 11  1  0
 10 13  2  0
 11 12  1  0
 11 14  2  0
 12 15  1  0
 12 17  2  0
 13 16  1  0
 14 18  1  0
 15 16  2  0
 17 19  1  0
 18 19  2  0
M  END
> <Name>
Propranolol

> <Lysotarcker IC50 uM>
70

> <Cytotox IC50 uM>
100

> <Active>
1

> <Name 2>
Propranolol

$$$$
Lisinopril
  SciTegic09101421012D

 29 30  0  0  0  0            999 V2000
    9.5888   -6.3114    0.0000 O   0  0
   10.7208   -7.2029    0.0000 O   0  0
   13.3388   -7.2029    0.0000 O   0  0
    4.3529   -1.8114    0.0000 O   0  0
    6.9708   -1.8114    0.0000 O   0  0
   10.8624   -4.0614    0.0000 N   0  0
    6.9708   -4.8114    0.0000 N   0  0
    6.9708   -0.3114    0.0000 N   0  0
   12.0652   -4.9529    0.0000 C   0  0  1  0  0  0
    9.5888   -4.8114    0.0000 C   0  0
    8.2444   -4.0614    0.0000 C   0  0  2  0  0  0
   11.3152   -2.6322    0.0000 C   0  0
   13.2681   -4.0614    0.0000 C   0  0
   12.0652   -6.4529    0.0000 C   0  0
   12.8152   -2.6322    0.0000 C   0  0
    5.6972   -4.0614    0.0000 C   0  0  2  0  0  0
    8.2444   -2.5614    0.0000 C   0  0
    5.6972   -2.5614    0.0000 C   0  0
    4.3529   -4.8114    0.0000 C   0  0
    9.5888   -1.8114    0.0000 C   0  0
    3.0793   -4.0614    0.0000 C   0  0
    1.8057   -4.8114    0.0000 C   0  0
    9.5888   -0.3114    0.0000 C   0  0
    0.4613   -4.0614    0.0000 C   0  0
    1.8057   -6.3114    0.0000 C   0  0
   -0.8123   -4.8114    0.0000 C   0  0
    0.4613   -7.0473    0.0000 C   0  0
   -0.8123   -6.3114    0.0000 C   0  0
    8.2444    0.4386    0.0000 C   0  0
  1 10  2  0
  2 14  2  0
  3 14  1  0
  4 18  2  0
  5 18  1  0
  6  9  1  0
  6 10  1  0
  6 12  1  0
  7 11  1  0
  7 16  1  0
  8 29  1  0
  9 13  1  0
  9 14  1  1
 10 11  1  0
 11 17  1  1
 12 15  1  0
 13 15  1  0
 16 18  1  1
 16 19  1  0
 17 20  1  0
 19 21  1  0
 20 23  1  0
 21 22  1  0
 22 24  2  0
 22 25  1  0
 23 29  1  0
 24 26  1  0
 25 27  2  0
 26 28  2  0
 27 28  1  0
M  END
> <Name>
Lisinopril

> <Lysotarcker IC50 uM>
>150

> <Cytotox IC50 uM>
>150

> <Active>
0

> <Name 2>
Lisinopril

$$$$
Amiodarone
  SciTegic09101421012D

 31 33  0  0  0  0            999 V2000
    4.5993   -6.6945    0.0000 C   0  0
    3.3055   -5.9528    0.0000 C   0  0
    3.1158   -4.4519    0.0000 C   0  0
    1.6494   -4.1760    0.0000 O   0  0
    1.9427   -6.5738    0.0000 C   0  0
    0.9249   -5.4871    0.0000 C   0  0
   -0.5415   -5.8148    0.0000 C   0  0
   -0.9727   -7.2638    0.0000 C   0  0
    0.0451   -8.3507    0.0000 C   0  0
    1.5114   -8.0057    0.0000 C   0  0
    4.5993   -8.1954    0.0000 O   0  0
    5.8931   -5.9528    0.0000 C   0  0
    7.2042   -3.6929    0.0000 C   0  0
    5.8931   -4.4519    0.0000 C   0  0
    7.2042   -6.6945    0.0000 C   0  0
    8.4980   -5.9528    0.0000 C   0  0
    8.4980   -4.4519    0.0000 C   0  0
    7.2042   -2.2093    0.0000 I   0  0
    9.7918   -6.6945    0.0000 I   0  0
    9.7918   -3.6929    0.0000 O   0  0
   11.0856   -4.4519    0.0000 C   0  0
   12.3794   -3.6929    0.0000 C   0  0
   13.6905   -4.4519    0.0000 N   0  0
   14.9843   -3.6929    0.0000 C   0  0
   16.2781   -4.4519    0.0000 C   0  0
   13.6905   -5.9528    0.0000 C   0  0
   14.9843   -6.6945    0.0000 C   0  0
    4.2198   -3.4341    0.0000 C   0  0
    3.8748   -1.9851    0.0000 C   0  0
    4.9789   -0.9501    0.0000 C   0  0
    4.6339    0.4990    0.0000 C   0  0
  1 12  1  0
  1  2  1  0
  1 11  2  0
  2  5  1  0
  2  3  2  0
  3  4  1  0
  3 28  1  0
  4  6  1  0
  5 10  1  0
  5  6  2  0
  6  7  1  0
  7  8  2  0
  8  9  1  0
  9 10  2  0
 12 14  2  0
 12 15  1  0
 13 14  1  0
 13 17  2  0
 13 18  1  0
 15 16  2  0
 16 17  1  0
 16 19  1  0
 17 20  1  0
 20 21  1  0
 21 22  1  0
 22 23  1  0
 23 24  1  0
 23 26  1  0
 24 25  1  0
 26 27  1  0
 28 29  1  0
 29 30  1  0
 30 31  1  0
M  END
> <Name>
Amiodarone

> <Lysotarcker IC50 uM>
3.8

> <Cytotox IC50 uM>
12.6

> <Active>
1

> <Name 2>
Amiodarone

$$$$
Imatinib
  SciTegic09101421012D

 37 41  0  0  0  0            999 V2000
    5.4625   -1.6179    0.0000 C   0  0
    5.4625   -0.1268    0.0000 O   0  0
    4.1715   -2.3633    0.0000 C   0  0
    2.8623   -1.6179    0.0000 C   0  0
    4.1715   -3.8725    0.0000 C   0  0
    1.5712   -2.3633    0.0000 C   0  0
    2.8623   -4.6181    0.0000 C   0  0
    1.5712   -3.8725    0.0000 C   0  0
    6.7717   -2.3633    0.0000 N   0  0
    0.2621   -4.6181    0.0000 C   0  0
    0.2621   -6.1273    0.0000 N   0  0
    0.2621   -9.1276    0.0000 N   0  0
    1.5712   -8.3638    0.0000 C   0  0
   -1.0290   -6.8728    0.0000 C   0  0
   -1.0290   -8.3638    0.0000 C   0  0
    1.5712   -6.8728    0.0000 C   0  0
    0.2621  -10.6186    0.0000 C   0  0
   10.6630   -1.6179    0.0000 C   0  0
   10.6630   -0.1268    0.0000 C   0  0
    9.3538    0.6369    0.0000 C   0  0
    8.0628   -0.1268    0.0000 C   0  0
    8.0628   -1.6179    0.0000 C   0  0
    9.3538   -2.3633    0.0000 C   0  0
   11.9540    0.6369    0.0000 C   0  0
   11.9540   -2.3633    0.0000 N   0  0
   10.6630   -4.6181    0.0000 N   0  0
   13.2633   -4.6181    0.0000 N   0  0
   11.9540   -3.8725    0.0000 C   0  0
   11.9540   -6.8728    0.0000 C   0  0
   10.6630   -6.1273    0.0000 C   0  0
   13.2633   -6.1273    0.0000 C   0  0
   17.1545   -6.8728    0.0000 N   0  0
   17.1545   -8.3638    0.0000 C   0  0
   15.8634   -6.1273    0.0000 C   0  0
   14.5543   -6.8728    0.0000 C   0  0
   15.8634   -9.1276    0.0000 C   0  0
   14.5543   -8.3638    0.0000 C   0  0
  1  2  2  0
  1  3  1  0
  1  9  1  0
  3  4  2  0
  3  5  1  0
  4  6  1  0
  5  7  2  0
  6  8  2  0
  7  8  1  0
  8 10  1  0
  9 22  1  0
 10 11  1  0
 11 14  1  0
 11 16  1  0
 12 13  1  0
 12 15  1  0
 12 17  1  0
 13 16  1  0
 14 15  1  0
 18 23  2  0
 18 19  1  0
 18 25  1  0
 19 20  2  0
 19 24  1  0
 20 21  1  0
 21 22  2  0
 22 23  1  0
 25 28  1  0
 26 28  2  0
 26 30  1  0
 27 28  1  0
 27 31  2  0
 29 30  2  0
 29 31  1  0
 31 35  1  0
 32 33  2  0
 32 34  1  0
 33 36  1  0
 34 35  2  0
 35 37  1  0
 36 37  2  0
M  END
> <Name>
Imatinib

> <Lysotarcker IC50 uM>
33.7

> <Cytotox IC50 uM>
56.7

> <Active>
1

> <Name 2>
Imatinib

$$$$
dasatinib
  SciTegic09101421012D

 33 36  0  0  0  0            999 V2000
   18.8559   -5.4963    0.0000 C   0  0
   17.5528   -6.2439    0.0000 C   0  0
   17.5528   -7.7392    0.0000 C   0  0
   18.8559   -8.4869    0.0000 C   0  0
   20.1589   -7.7392    0.0000 C   0  0
   20.1589   -6.2439    0.0000 C   0  0
   18.8559   -4.0011    0.0000 C   0  0
   16.2712   -8.4869    0.0000 Cl  0  0
   16.2712   -5.4963    0.0000 N   0  0
   14.9682   -6.2439    0.0000 C   0  0
   14.9682   -7.7392    0.0000 O   0  0
   13.6651   -5.4963    0.0000 C   0  0
   11.3795   -4.6846    0.0000 C   0  0
   13.7078   -4.0011    0.0000 C   0  0
   12.2339   -5.9236    0.0000 S   0  0
   12.2981   -3.4884    0.0000 N   0  0
    9.8843   -4.6419    0.0000 N   0  0
    9.1793   -3.3176    0.0000 C   0  0
    9.3716   -0.7328    0.0000 C   0  0
    7.0432   -1.8436    0.0000 C   0  0
    7.6840   -3.2107    0.0000 C   0  0
   10.0338   -2.0786    0.0000 N   0  0
   10.2261    0.5061    0.0000 C   0  0
    7.8763   -0.6047    0.0000 N   0  0
    4.8003   -0.4338    0.0000 C   0  0
    3.2837   -0.4338    0.0000 C   0  0
    3.2837   -3.0185    0.0000 C   0  0
    4.8003   -3.0185    0.0000 C   0  0
    5.5479   -1.7369    0.0000 N   0  0
    2.5360   -1.7369    0.0000 N   0  0
    1.0408   -1.7369    0.0000 C   0  0
    0.2932   -3.0185    0.0000 C   0  0
   -1.2021   -3.0185    0.0000 O   0  0
  1  2  1  0
  1  6  2  0
  1  7  1  0
  2  3  2  0
  2  9  1  0
  3  4  1  0
  3  8  1  0
  4  5  2  0
  5  6  1  0
  9 10  1  0
 10 12  1  0
 10 11  2  0
 12 15  1  0
 12 14  2  0
 13 16  2  0
 13 15  1  0
 13 17  1  0
 14 16  1  0
 17 18  1  0
 18 21  1  0
 18 22  2  0
 19 24  2  0
 19 22  1  0
 19 23  1  0
 20 24  1  0
 20 21  2  0
 20 29  1  0
 25 29  1  0
 25 26  1  0
 26 30  1  0
 27 30  1  0
 27 28  1  0
 28 29  1  0
 30 31  1  0
 31 32  1  0
 32 33  1  0
M  END
> <Name>
dasatinib

> <Lysotarcker IC50 uM>
47.3

> <Cytotox IC50 uM>
127.6

> <Active>
1

> <Name 2>
dasatinib

$$$$
sunitinib
  SciTegic09101421012D

 29 31  0  0  0  0            999 V2000
   10.3758   -7.9976    0.0000 O   0  0
   10.2179   -6.5045    0.0000 C   0  0
    8.8539   -5.9015    0.0000 C   0  0
    8.5381   -4.4371    0.0000 C   0  0
    9.5431   -3.3173    0.0000 C   0  0
    7.0450   -4.2793    0.0000 N   0  0
    6.4420   -5.6431    0.0000 C   0  0
    4.9776   -5.9590    0.0000 C   0  0
    4.5182   -7.3803    0.0000 C   0  0
    5.3940   -8.6006    0.0000 C   0  0
    4.5182   -9.8066    0.0000 N   0  0
    3.0825   -9.3472    0.0000 C   0  0
    3.0825   -7.8398    0.0000 C   0  0
    1.7903   -7.0932    0.0000 C   0  0
    0.4838   -7.8398    0.0000 C   0  0
   -0.8082   -7.0932    0.0000 F   0  0
    0.4838   -9.3472    0.0000 C   0  0
    1.7903  -10.0937    0.0000 C   0  0
    6.8871   -8.6006    0.0000 O   0  0
    7.5474   -6.6481    0.0000 C   0  0
    7.4039   -8.1412    0.0000 C   0  0
   11.4382   -5.6288    0.0000 N   0  0
   11.2803   -4.1357    0.0000 C   0  0
   12.4863   -3.2599    0.0000 C   0  0
   12.3428   -1.7668    0.0000 N   0  0
   13.5487   -0.8910    0.0000 C   0  0
   13.3908    0.6021    0.0000 C   0  0
   10.9645   -1.1638    0.0000 C   0  0
    9.7585   -2.0395    0.0000 C   0  0
  1  2  2  0
  2  3  1  0
  2 22  1  0
  3  4  2  0
  3 20  1  0
  4  5  1  0
  4  6  1  0
  6  7  1  0
  7  8  1  0
  7 20  2  0
  8  9  2  0
  9 10  1  0
  9 13  1  0
 10 11  1  0
 10 19  2  0
 11 12  1  0
 12 13  2  0
 12 18  1  0
 13 14  1  0
 14 15  2  0
 15 16  1  0
 15 17  1  0
 17 18  2  0
 20 21  1  0
 22 23  1  0
 23 24  1  0
 24 25  1  0
 25 26  1  0
 25 28  1  0
 26 27  1  0
 28 29  1  0
M  END
> <Name>
sunitinib

> <Lysotarcker IC50 uM>
5.6

> <Cytotox IC50 uM>
12.6

> <Active>
1

> <Name 2>
sunitinib

$$$$
erlotinib
  SciTegic09101421012D

 29 31  0  0  0  0            999 V2000
   -0.6609   -3.8203    0.0000 C   0  0
    0.6347   -4.5761    0.0000 O   0  0
    1.9424   -3.8203    0.0000 C   0  0
    3.2380   -4.5761    0.0000 C   0  0
    4.5337   -3.8203    0.0000 O   0  0
    5.8295   -4.5761    0.0000 C   0  0
    5.8295   -6.0637    0.0000 C   0  0
    7.1371   -6.8195    0.0000 C   0  0
    8.4328   -6.0637    0.0000 C   0  0
    8.4328   -4.5761    0.0000 C   0  0
    7.1371   -3.8203    0.0000 C   0  0
    9.7285   -3.8203    0.0000 C   0  0
   11.0241   -4.5761    0.0000 N   0  0
   11.0241   -6.0637    0.0000 C   0  0
    9.7285   -6.8195    0.0000 N   0  0
    9.7285   -2.3207    0.0000 N   0  0
    8.4328   -1.5648    0.0000 C   0  0
    8.4328   -0.0653    0.0000 C   0  0
    7.1371    0.6786    0.0000 C   0  0
    5.8295   -0.0653    0.0000 C   0  0
    5.8295   -1.5648    0.0000 C   0  0
    7.1371   -2.3207    0.0000 C   0  0
    4.5337   -2.3207    0.0000 C   0  0
    3.2380   -3.0645    0.0000 C   0  0
    4.5337   -6.8195    0.0000 O   0  0
    4.5337   -8.3192    0.0000 C   0  0
    3.2380   -9.0629    0.0000 C   0  0
    3.2380  -10.5626    0.0000 O   0  0
    1.9424  -11.3184    0.0000 C   0  0
  1  2  1  0
  2  3  1  0
  3  4  1  0
  4  5  1  0
  5  6  1  0
  6  7  2  0
  6 11  1  0
  7  8  1  0
  7 25  1  0
  8  9  2  0
  9 10  1  0
  9 15  1  0
 10 11  2  0
 10 12  1  0
 12 13  2  0
 12 16  1  0
 13 14  1  0
 14 15  2  0
 16 17  1  0
 17 18  2  0
 17 22  1  0
 18 19  1  0
 19 20  2  0
 20 21  1  0
 21 22  2  0
 21 23  1  0
 23 24  3  0
 25 26  1  0
 26 27  1  0
 27 28  1  0
 28 29  1  0
M  END
> <Name>
erlotinib

> <Lysotarcker IC50 uM>
>150

> <Cytotox IC50 uM>
>150

> <Active>
0

> <Name 2>
erlotinib

$$$$
nilotinib
  SciTegic09101421012D

 39 43  0  0  0  0            999 V2000
   14.1422   -1.0097    0.0000 F   0  0
   17.1656   -1.0097    0.0000 F   0  0
   15.6656    0.4903    0.0000 F   0  0
   11.7282   -3.2831    0.0000 O   0  0
   18.2204   -5.5331    0.0000 N   0  0
   13.0171   -5.5331    0.0000 N   0  0
    6.5484   -4.8535    0.0000 N   0  0
   19.7204   -7.5019    0.0000 N   0  0
    3.9000   -4.8535    0.0000 N   0  0
    5.1891   -7.1269    0.0000 N   0  0
   -0.0844   -2.6035    0.0000 N   0  0
   16.9313   -4.7831    0.0000 C   0  0
   15.6656   -2.5331    0.0000 C   0  0
   14.3062   -4.7831    0.0000 C   0  0
   15.6656   -1.0097    0.0000 C   0  0
   16.9313   -3.2831    0.0000 C   0  0
   15.6656   -5.5331    0.0000 C   0  0
   14.3062   -3.2831    0.0000 C   0  0
   10.4625   -5.5331    0.0000 C   0  0
   11.7282   -4.7831    0.0000 C   0  0
    7.8140   -5.5331    0.0000 C   0  0
   19.6500   -5.0878    0.0000 C   0  0
   18.2204   -7.0566    0.0000 C   0  0
    9.1031   -4.7831    0.0000 C   0  0
    7.8140   -7.0566    0.0000 C   0  0
   20.5640   -6.2831    0.0000 C   0  0
    5.1891   -5.6269    0.0000 C   0  0
   10.4625   -7.0566    0.0000 C   0  0
    2.6109   -5.6269    0.0000 C   0  0
    9.1031   -7.8066    0.0000 C   0  0
    1.1813   -4.8535    0.0000 C   0  0
    2.6109   -7.1269    0.0000 C   0  0
    3.9000   -7.8769    0.0000 C   0  0
    6.5484   -7.8066    0.0000 C   0  0
   22.0640   -6.2831    0.0000 C   0  0
    1.1813   -3.3535    0.0000 C   0  0
   -0.0844   -5.6269    0.0000 C   0  0
   -1.3734   -4.8535    0.0000 C   0  0
   -1.3734   -3.3535    0.0000 C   0  0
  1 15  1  0
  2 15  1  0
  3 15  1  0
  4 20  2  0
  5 12  1  0
  5 22  1  0
  5 23  1  0
  6 14  1  0
  6 20  1  0
  7 21  1  0
  7 27  1  0
  8 23  2  0
  8 26  1  0
  9 27  2  0
  9 29  1  0
 10 27  1  0
 10 33  2  0
 11 36  1  0
 11 39  2  0
 12 16  2  0
 12 17  1  0
 13 15  1  0
 13 16  1  0
 13 18  2  0
 14 17  2  0
 14 18  1  0
 19 20  1  0
 19 24  2  0
 19 28  1  0
 21 24  1  0
 21 25  2  0
 22 26  2  0
 25 30  1  0
 25 34  1  0
 26 35  1  0
 28 30  2  0
 29 31  1  0
 29 32  2  0
 31 36  2  0
 31 37  1  0
 32 33  1  0
 37 38  2  0
 38 39  1  0
M  END
> <Name>
nilotinib

> <Lysotarcker IC50 uM>
>150

> <Cytotox IC50 uM>
>150

> <Active>
0

> <Name 2>
nilotinib

$$$$
pazopanib
  SciTegic09101421012D

 31 34  0  0  0  0            999 V2000
    1.7223   -0.8169    0.0000 S   0  0
    0.2223   -0.8169    0.0000 O   0  0
    3.2224   -0.8169    0.0000 O   0  0
   13.1190   -8.3342    0.0000 N   0  0
    6.9121   -9.8342    0.0000 N   0  0
   12.2398   -9.5411    0.0000 N   0  0
    4.3086   -5.3342    0.0000 N   0  0
    5.6190   -7.5756    0.0000 N   0  0
    3.0155   -7.5756    0.0000 N   0  0
    1.7223    0.6832    0.0000 N   0  0
   10.8259   -7.5756    0.0000 C   0  0
   10.8259   -9.0756    0.0000 C   0  0
   12.2398   -7.1273    0.0000 C   0  0
    8.2224   -9.0756    0.0000 C   0  0
    9.5155   -9.8342    0.0000 C   0  0
    9.5155   -6.8342    0.0000 C   0  0
    8.2224   -7.5756    0.0000 C   0  0
   12.7053   -5.6962    0.0000 C   0  0
    5.6190   -9.0756    0.0000 C   0  0
    1.7223   -2.3169    0.0000 C   0  0
   14.6191   -8.3342    0.0000 C   0  0
    0.4119   -3.0755    0.0000 C   0  0
    3.0155   -4.5755    0.0000 C   0  0
    6.9121  -11.3343    0.0000 C   0  0
    3.0155   -3.0755    0.0000 C   0  0
    0.4119   -4.5755    0.0000 C   0  0
    1.7223   -5.3342    0.0000 C   0  0
    4.3086   -6.8342    0.0000 C   0  0
    4.3086   -9.8342    0.0000 C   0  0
   -0.8812   -2.3169    0.0000 C   0  0
    3.0155   -9.0756    0.0000 C   0  0
  1  2  2  0
  1  3  2  0
  1 10  1  0
  1 20  1  0
  4  6  1  0
  4 13  1  0
  4 21  1  0
  5 14  1  0
  5 19  1  0
  5 24  1  0
  6 12  2  0
  7 23  1  0
  7 28  1  0
  8 19  2  0
  8 28  1  0
  9 28  2  0
  9 31  1  0
 11 12  1  0
 11 13  2  0
 11 16  1  0
 12 15  1  0
 13 18  1  0
 14 15  2  0
 14 17  1  0
 16 17  2  0
 19 29  1  0
 20 22  2  0
 20 25  1  0
 22 26  1  0
 22 30  1  0
 23 25  2  0
 23 27  1  0
 26 27  2  0
 29 31  2  0
M  END
> <Name>
pazopanib

> <Lysotarcker IC50 uM>
>150

> <Cytotox IC50 uM>
>150

> <Active>
0

> <Name 2>
pazopanib

$$$$
gefitinib
  SciTegic09101421012D

 31 34  0  0  0  0            999 V2000
    6.9738   -8.4884    0.0000 C   0  0
    6.9738   -6.9885    0.0000 O   0  0
    8.2737   -6.2456    0.0000 C   0  0
    9.5737   -6.9885    0.0000 C   0  0
   10.8738   -6.2456    0.0000 C   0  0
   12.1737   -6.9885    0.0000 N   0  0
   13.4737   -6.2456    0.0000 C   0  0
   13.4737   -4.7456    0.0000 N   0  0
   12.1737   -3.9885    0.0000 C   0  0
   12.1737   -2.4885    0.0000 N   0  0
   10.8738   -1.7457    0.0000 C   0  0
   10.8738   -0.2457    0.0000 C   0  0
    9.5737    0.5115    0.0000 C   0  0
    8.2737   -0.2457    0.0000 C   0  0
    6.9738    0.5115    0.0000 F   0  0
    8.2737   -1.7457    0.0000 C   0  0
    6.9738   -2.4885    0.0000 Cl  0  0
    9.5737   -2.4885    0.0000 C   0  0
   10.8738   -4.7456    0.0000 C   0  0
    9.5737   -3.9885    0.0000 C   0  0
    8.2737   -4.7456    0.0000 C   0  0
    6.9738   -3.9885    0.0000 O   0  0
    5.6880   -4.7456    0.0000 C   0  0
    4.3881   -3.9885    0.0000 C   0  0
    3.0881   -4.7456    0.0000 C   0  0
    1.7881   -3.9885    0.0000 N   0  0
    1.7881   -2.4885    0.0000 C   0  0
    0.4881   -1.7457    0.0000 C   0  0
   -0.8119   -2.4885    0.0000 O   0  0
   -0.8119   -3.9885    0.0000 C   0  0
    0.4881   -4.7456    0.0000 C   0  0
  1  2  1  0
  2  3  1  0
  3  4  2  0
  3 21  1  0
  4  5  1  0
  5  6  2  0
  5 19  1  0
  6  7  1  0
  7  8  2  0
  8  9  1  0
  9 10  1  0
  9 19  2  0
 10 11  1  0
 11 12  2  0
 11 18  1  0
 12 13  1  0
 13 14  2  0
 14 15  1  0
 14 16  1  0
 16 17  1  0
 16 18  2  0
 19 20  1  0
 20 21  2  0
 21 22  1  0
 22 23  1  0
 23 24  1  0
 24 25  1  0
 25 26  1  0
 26 27  1  0
 26 31  1  0
 27 28  1  0
 28 29  1  0
 29 30  1  0
 30 31  1  0
M  END
> <Name>
gefitinib

> <Lysotarcker IC50 uM>
58.5

> <Cytotox IC50 uM>
>150

> <Active>
1

> <Name 2>
gefitinib

$$$$
lapatinib
  SciTegic09101421012D

 40 44  0  0  0  0            999 V2000
    0.1761   -3.3433    0.0000 C   0  0
    0.0218   -4.8353    0.0000 S   0  0
   -0.1326   -6.3273    0.0000 O   0  0
   -1.4703   -4.6809    0.0000 O   0  0
    1.5137   -4.9896    0.0000 C   0  0
    2.3883   -3.7806    0.0000 C   0  0
    3.9061   -3.9349    0.0000 N   0  0
    4.7807   -2.7002    0.0000 C   0  0
    6.2727   -2.8803    0.0000 C   0  0
    7.0187   -4.1664    0.0000 C   0  0
    8.4850   -3.8577    0.0000 C   0  0
    8.6394   -2.3658    0.0000 C   0  0
    7.2759   -1.7484    0.0000 O   0  0
    9.9512   -1.6198    0.0000 C   0  0
   11.2375   -2.3658    0.0000 C   0  0
   12.5494   -1.6198    0.0000 C   0  0
   12.5494   -0.1020    0.0000 C   0  0
   11.2375    0.6440    0.0000 C   0  0
    9.9512   -0.1020    0.0000 C   0  0
   13.8614    0.6440    0.0000 N   0  0
   15.1475   -0.1020    0.0000 C   0  0
   15.1475   -1.6198    0.0000 N   0  0
   13.8614   -2.3658    0.0000 C   0  0
   13.8614   -3.8577    0.0000 N   0  0
   15.1475   -4.6038    0.0000 C   0  0
   15.1475   -6.1215    0.0000 C   0  0
   16.4595   -6.8675    0.0000 C   0  0
   17.7457   -6.1215    0.0000 C   0  0
   17.7457   -4.6038    0.0000 C   0  0
   16.4595   -3.8577    0.0000 C   0  0
   19.0577   -6.8675    0.0000 O   0  0
   20.3438   -6.1215    0.0000 C   0  0
   21.6558   -6.8675    0.0000 C   0  0
   21.6558   -8.3595    0.0000 C   0  0
   22.9420   -9.1312    0.0000 C   0  0
   24.2540   -8.3595    0.0000 C   0  0
   24.2540   -6.8675    0.0000 C   0  0
   22.9420   -6.1215    0.0000 C   0  0
   22.9420  -10.6232    0.0000 F   0  0
   16.4595   -8.3595    0.0000 Cl  0  0
  1  2  1  0
  2  3  2  0
  2  4  2  0
  2  5  1  0
  5  6  1  0
  6  7  1  0
  7  8  1  0
  8  9  1  0
  9 10  2  0
  9 13  1  0
 10 11  1  0
 11 12  2  0
 12 13  1  0
 12 14  1  0
 14 15  2  0
 14 19  1  0
 15 16  1  0
 16 17  2  0
 16 23  1  0
 17 18  1  0
 17 20  1  0
 18 19  2  0
 20 21  2  0
 21 22  1  0
 22 23  2  0
 23 24  1  0
 24 25  1  0
 25 26  2  0
 25 30  1  0
 26 27  1  0
 27 28  2  0
 27 40  1  0
 28 29  1  0
 28 31  1  0
 29 30  2  0
 31 32  1  0
 32 33  1  0
 33 34  2  0
 33 38  1  0
 34 35  1  0
 35 36  2  0
 35 39  1  0
 36 37  1  0
 37 38  2  0
M  END
> <Name>
lapatinib

> <Lysotarcker IC50 uM>
17.3

> <Cytotox IC50 uM>
>150

> <Active>
1

> <Name 2>
lapatinib

$$$$
tamoxifen
  SciTegic09101421012D

 28 30  0  0  0  0            999 V2000
   11.3232  -11.0288    0.0000 C   0  0
   10.5793   -9.7328    0.0000 N   0  0
   11.3232   -8.4368    0.0000 C   0  0
    9.0793   -9.7328    0.0000 C   0  0
    8.3232   -8.4368    0.0000 C   0  0
    6.8232   -8.4368    0.0000 O   0  0
    6.0792   -7.1288    0.0000 C   0  0
    6.8232   -5.8328    0.0000 C   0  0
    6.0792   -4.5368    0.0000 C   0  0
    4.5792   -4.5368    0.0000 C   0  0
    3.8232   -3.2408    0.0000 C   0  0
    4.5792   -1.9328    0.0000 C   0  0
    6.0792   -1.9328    0.0000 C   0  0
    6.8232   -0.6368    0.0000 C   0  0
    6.0792    0.6592    0.0000 C   0  0
    4.5792    0.6592    0.0000 C   0  0
    3.8232   -0.6368    0.0000 C   0  0
    2.3232   -3.2408    0.0000 C   0  0
    1.5792   -4.5368    0.0000 C   0  0
    0.0792   -4.5368    0.0000 C   0  0
   -0.6768   -5.8328    0.0000 C   0  0
    0.0672   -7.1288    0.0000 C   0  0
    1.5672   -7.1288    0.0000 C   0  0
    2.3232   -5.8328    0.0000 C   0  0
    1.5792   -1.9328    0.0000 C   0  0
    0.0792   -1.9328    0.0000 C   0  0
    3.8232   -5.8328    0.0000 C   0  0
    4.5792   -7.1288    0.0000 C   0  0
  1  2  1  0
  2  3  1  0
  2  4  1  0
  4  5  1  0
  5  6  1  0
  6  7  1  0
  7  8  2  0
  7 28  1  0
  8  9  1  0
  9 10  2  0
 10 11  1  0
 10 27  1  0
 11 12  1  0
 11 18  2  0
 12 13  2  0
 12 17  1  0
 13 14  1  0
 14 15  2  0
 15 16  1  0
 16 17  2  0
 18 19  1  0
 18 25  1  0
 19 20  2  0
 19 24  1  0
 20 21  1  0
 21 22  2  0
 22 23  1  0
 23 24  2  0
 25 26  1  0
 27 28  2  0
M  END
> <Name>
tamoxifen

> <Lysotarcker IC50 uM>
3.8

> <Cytotox IC50 uM>
6.6

> <Active>
1

> <Name 2>
tamoxifen

$$$$
fluconazole
  SciTegic09101421012D

 22 24  0  0  0  0            999 V2000
    5.1956   -9.1958    0.0000 F   0  0
    4.4451   -7.8995    0.0000 C   0  0
    5.1956   -6.6032    0.0000 C   0  0
    4.4451   -5.2972    0.0000 C   0  0
    2.9442   -5.2972    0.0000 C   0  0
    2.2034   -6.6032    0.0000 C   0  0
    2.9442   -7.8995    0.0000 C   0  0
    0.7025   -6.6032    0.0000 F   0  0
    2.2034   -4.0010    0.0000 C   0  0
    3.4997   -3.2504    0.0000 C   0  0
    3.4997   -1.7592    0.0000 N   0  0
    4.7083   -0.8723    0.0000 C   0  0
    4.2502    0.5507    0.0000 N   0  0
    2.7493    0.5507    0.0000 C   0  0
    2.2814   -0.8723    0.0000 N   0  0
    0.8974   -4.7514    0.0000 C   0  0
    0.8974   -6.2524    0.0000 N   0  0
   -0.3111   -7.1296    0.0000 C   0  0
    0.1567   -8.5623    0.0000 N   0  0
    1.6479   -8.5623    0.0000 C   0  0
    2.1157   -7.1296    0.0000 N   0  0
    1.4530   -2.7047    0.0000 O   0  0
  1  2  1  0
  2  3  1  0
  2  7  2  0
  3  4  2  0
  4  5  1  0
  5  6  2  0
  5  9  1  0
  6  7  1  0
  6  8  1  0
  9 10  1  0
  9 16  1  0
  9 22  1  0
 10 11  1  0
 11 12  1  0
 11 15  1  0
 12 13  2  0
 13 14  1  0
 14 15  2  0
 16 17  1  0
 17 18  1  0
 17 21  1  0
 18 19  2  0
 19 20  1  0
 20 21  2  0
M  END
> <Name>
fluconazole

> <Lysotarcker IC50 uM>
>150

> <Cytotox IC50 uM>
>150

> <Active>
0

> <Name 2>
fluconazole

$$$$
ciprofloxacin
  SciTegic09101421012D

 24 27  0  0  0  0            999 V2000
    0.6299    0.4178    0.0000 O   0  0
    0.6299   -1.0807    0.0000 C   0  0
   -0.6696   -1.8299    0.0000 O   0  0
    1.9294   -1.8299    0.0000 C   0  0
    1.9294   -3.3284    0.0000 C   0  0
    3.2289   -4.0895    0.0000 N   0  0
    3.2289   -5.5879    0.0000 C   0  0
    2.4797   -6.8874    0.0000 C   0  0
    3.9782   -6.8874    0.0000 C   0  0
    4.5284   -3.3284    0.0000 C   0  0
    5.8396   -4.0895    0.0000 C   0  0
    7.1390   -3.3284    0.0000 C   0  0
    8.4385   -4.0895    0.0000 N   0  0
    8.4385   -5.5879    0.0000 C   0  0
    9.7380   -6.3372    0.0000 C   0  0
   11.0375   -5.5879    0.0000 N   0  0
   11.0375   -4.0895    0.0000 C   0  0
    9.7380   -3.3284    0.0000 C   0  0
    7.1390   -1.8299    0.0000 C   0  0
    8.4385   -1.0807    0.0000 F   0  0
    5.8396   -1.0807    0.0000 C   0  0
    4.5284   -1.8299    0.0000 C   0  0
    3.2289   -1.0807    0.0000 C   0  0
    3.2289    0.4178    0.0000 O   0  0
  1  2  1  0
  2  3  2  0
  2  4  1  0
  4  5  2  0
  4 23  1  0
  5  6  1  0
  6  7  1  0
  6 10  1  0
  7  8  1  0
  7  9  1  0
  8  9  1  0
 10 11  1  0
 10 22  2  0
 11 12  2  0
 12 13  1  0
 12 19  1  0
 13 14  1  0
 13 18  1  0
 14 15  1  0
 15 16  1  0
 16 17  1  0
 17 18  1  0
 19 20  1  0
 19 21  2  0
 21 22  1  0
 22 23  1  0
 23 24  2  0
M  END
> <Name>
ciprofloxacin

> <Lysotarcker IC50 uM>
>150

> <Cytotox IC50 uM>
>150

> <Active>
0

> <Name 2>
ciprofloxacin

$$$$
levofloxacin
  SciTegic09101421012D

 26 29  0  0  0  0            999 V2000
    3.1622   -1.1028    0.0000 F   0  0
    5.7970   -5.6288    0.0000 O   0  0
    8.4318    0.3972    0.0000 O   0  0
   11.0014    0.3972    0.0000 O   0  0
   12.2796   -1.8593    0.0000 O   0  0
    8.4318   -4.1288    0.0000 N   0  0
    3.1622   -4.1288    0.0000 N   0  0
    0.5926   -5.6288    0.0000 N   0  0
    7.0752   -3.3723    0.0000 C   0  0
    5.7970   -4.1288    0.0000 C   0  0
    7.0752   -1.8593    0.0000 C   0  0
    4.5188   -3.3723    0.0000 C   0  0
    8.4318   -1.1028    0.0000 C   0  0
    4.5188   -1.8593    0.0000 C   0  0
    9.7100   -1.8593    0.0000 C   0  0
    5.7970   -1.1028    0.0000 C   0  0
    8.4318   -5.6288    0.0000 C   0  0  2  0  0  0
    9.7100   -3.3723    0.0000 C   0  0
    7.0752   -6.3854    0.0000 C   0  0
   11.0014   -1.1028    0.0000 C   0  0
    3.1622   -5.6288    0.0000 C   0  0
    1.8709   -3.3723    0.0000 C   0  0
    9.7100   -6.3854    0.0000 C   0  0
    1.8709   -6.3854    0.0000 C   0  0
    0.5926   -4.1288    0.0000 C   0  0
   -0.7639   -6.3854    0.0000 C   0  0
  1 14  1  0
  2 10  1  0
  2 19  1  0
  3 13  2  0
  4 20  2  0
  5 20  1  0
  6  9  1  0
  6 17  1  0
  6 18  1  0
  7 12  1  0
  7 21  1  0
  7 22  1  0
  8 24  1  0
  8 25  1  0
  8 26  1  0
  9 10  1  0
  9 11  2  0
 10 12  2  0
 11 13  1  0
 11 16  1  0
 12 14  1  0
 13 15  1  0
 14 16  2  0
 15 18  2  0
 15 20  1  0
 17 19  1  0
 17 23  1  1
 21 24  1  0
 22 25  1  0
M  END
> <Name>
levofloxacin

> <Lysotarcker IC50 uM>
>150

> <Cytotox IC50 uM>
>150

> <Active>
0

> <Name 2>
levofloxacin

$$$$
lomefloxacin
  SciTegic09101421012D

 25 27  0  0  0  0            999 V2000
    4.4888   -5.4836    0.0000 F   0  0
    1.9458   -1.1475    0.0000 F   0  0
    7.1841    0.4580    0.0000 O   0  0
    9.7741    0.4580    0.0000 O   0  0
   11.0749   -1.7921    0.0000 O   0  0
    7.1841   -4.0304    0.0000 N   0  0
    1.9458   -4.0890    0.0000 N   0  0
   -0.6442   -5.5773    0.0000 N   0  0
    5.8365   -3.2921    0.0000 C   0  0
    5.8365   -1.7921    0.0000 C   0  0
    4.4888   -4.0304    0.0000 C   0  0
    3.2466   -3.3390    0.0000 C   0  0
    7.1841   -1.0420    0.0000 C   0  0
    3.2466   -1.8389    0.0000 C   0  0
    8.4849   -1.7921    0.0000 C   0  0
    4.4888   -1.0420    0.0000 C   0  0
    8.4849   -3.2921    0.0000 C   0  0
    9.7741   -1.0420    0.0000 C   0  0
    7.1841   -5.4836    0.0000 C   0  0
    1.9458   -5.5304    0.0000 C   0  0
    0.6566   -3.3859    0.0000 C   0  0
    0.6566   -6.3273    0.0000 C   0  0
   -0.6442   -4.1358    0.0000 C   0  0
    5.8833   -6.2335    0.0000 C   0  0
    0.6566   -7.8742    0.0000 C   0  0
  1 11  1  0
  2 14  1  0
  3 13  2  0
  4 18  2  0
  5 18  1  0
  6  9  1  0
  6 17  1  0
  6 19  1  0
  7 12  1  0
  7 20  1  0
  7 21  1  0
  8 22  1  0
  8 23  1  0
  9 10  2  0
  9 11  1  0
 10 13  1  0
 10 16  1  0
 11 12  2  0
 12 14  1  0
 13 15  1  0
 14 16  2  0
 15 17  2  0
 15 18  1  0
 19 24  1  0
 20 22  1  0
 21 23  1  0
 22 25  1  0
M  END
> <Name>
lomefloxacin

> <Lysotarcker IC50 uM>
>150

> <Cytotox IC50 uM>
>150

> <Active>
0

> <Name 2>
lomefloxacin

$$$$
pilocarpine
  SciTegic09101421012D

 15 16  0  0  0  0            999 V2000
    2.6658    0.1863    0.0000 O   0  0
    0.0185   -0.2303    0.0000 O   0  0
    7.3442   -2.1311    0.0000 N   0  0
    6.5978    0.1863    0.0000 N   0  0
    3.4122   -2.1225    0.0000 C   0  0  1  0  0  0
    1.9107   -2.1225    0.0000 C   0  0  1  0  0  0
    5.8426   -2.1311    0.0000 C   0  0
    1.4506   -0.6904    0.0000 C   0  0
    4.7056   -2.8082    0.0000 C   0  0
    3.8810   -0.6904    0.0000 C   0  0
    5.3738   -0.6990    0.0000 C   0  0
    1.0341   -3.3290    0.0000 C   0  0
    7.8042   -0.6990    0.0000 C   0  0
    8.2209   -3.3377    0.0000 C   0  0
   -0.4589   -3.3290    0.0000 C   0  0
  1  8  1  0
  1 10  1  0
  2  8  2  0
  3  7  1  0
  3 13  1  0
  3 14  1  0
  4 11  1  0
  4 13  2  0
  5  6  1  0
  5  9  1  6
  5 10  1  0
  6  8  1  0
  6 12  1  6
  7  9  1  0
  7 11  2  0
 12 15  1  0
M  END
> <Name>
pilocarpine

> <Lysotarcker IC50 uM>
>150

> <Cytotox IC50 uM>
>150

> <Active>
0

> <Name 2>
pilocarpine

$$$$
piroxicam
  SciTegic09101421012D

 23 25  0  0  0  0            999 V2000
    0.8641   -0.8079    0.0000 C   0  0
    2.1561   -1.5550    0.0000 N   0  0
    2.1561   -3.0491    0.0000 C   0  0
    0.8641   -3.8050    0.0000 C   0  0
   -0.4368   -3.0491    0.0000 O   0  0
    0.8641   -5.2991    0.0000 N   0  0
    2.1561   -6.0462    0.0000 C   0  0
    2.1561   -7.5492    0.0000 C   0  0
    3.4568   -8.2963    0.0000 C   0  0
    4.7488   -7.5492    0.0000 C   0  0
    4.7488   -6.0462    0.0000 C   0  0
    3.4568   -5.2991    0.0000 N   0  0
    3.4568   -3.8050    0.0000 C   0  0
    3.4568   -5.2991    0.0000 O   0  0
    4.7488   -3.0491    0.0000 C   0  0
    6.0496   -3.8050    0.0000 C   0  0
    7.3505   -3.0491    0.0000 C   0  0
    7.3505   -1.5550    0.0000 C   0  0
    6.0496   -0.8079    0.0000 C   0  0
    4.7488   -1.5550    0.0000 C   0  0
    3.4568   -0.8079    0.0000 S   0  0
    4.2039    0.4930    0.0000 O   0  0
    2.7098    0.4930    0.0000 O   0  0
  1  2  1  0
  2  3  1  0
  2 21  1  0
  3  4  1  0
  3 13  2  0
  4  5  2  0
  4  6  1  0
  6  7  1  0
  7  8  1  0
  7 12  2  0
  8  9  2  0
  9 10  1  0
 10 11  2  0
 11 12  1  0
 13 14  1  0
 13 15  1  0
 15 16  1  0
 15 20  2  0
 16 17  2  0
 17 18  1  0
 18 19  2  0
 19 20  1  0
 20 21  1  0
 21 22  2  0
 21 23  2  0
M  END
> <Name>
piroxicam

> <Lysotarcker IC50 uM>
>150

> <Cytotox IC50 uM>
>150

> <Active>
0

> <Name 2>
piroxicam

$$$$
amiloride
  SciTegic09101421012D

 15 15  0  0  0  0            999 V2000
    0.7849   -1.9995    0.0000 C   0  0
    0.7849   -3.4995    0.0000 C   0  0
    3.3849   -3.4995    0.0000 C   0  0
    3.3849   -1.9995    0.0000 C   0  0
    2.0848   -1.2450    0.0000 N   0  0
    2.0848   -4.2449    0.0000 N   0  0
   -0.5151   -1.2450    0.0000 Cl  0  0
   -0.5151   -4.2449    0.0000 N   0  0
    4.6756   -4.2449    0.0000 N   0  0
    4.6756   -1.2450    0.0000 C   0  0
    4.6756    0.2550    0.0000 O   0  0
    5.9757   -1.9995    0.0000 N   0  0
    7.2756   -1.2450    0.0000 C   0  0
    7.2756    0.2550    0.0000 N   0  0
    8.5756   -1.9995    0.0000 N   0  0
  1  5  1  0
  1  2  2  0
  1  7  1  0
  2  6  1  0
  2  8  1  0
  3  6  2  0
  3  4  1  0
  3  9  1  0
  4  5  2  0
  4 10  1  0
 10 11  2  0
 10 12  1  0
 12 13  1  0
 13 15  2  0
 13 14  1  0
M  END
> <Name>
amiloride

> <Lysotarcker IC50 uM>
>150

> <Cytotox IC50 uM>
>150

> <Active>
0

> <Name 2>
amiloride

$$$$
diclofenac
  SciTegic09101421013D

 19 20  0  0  0  0            999 V2000
    3.8044   -3.8557   -0.0153 N   0  0  0  0  0  0  0  0  0  1  0  0
    5.0898   -4.6978   -0.0104 C   0  0  0  0  0  0  0  0  0  2  0  0
    3.4846   -2.4000   -0.0017 C   0  0  0  0  0  0  0  0  0  3  0  0
    0.7792   -4.1941    0.0040 C   0  0  0  0  0  0  0  0  0  4  0  0
    2.2081   -1.9156   -0.0153 C   0  0  0  0  0  0  0  0  0  5  0  0
    4.8726   -6.2009    0.0002 C   0  0  0  0  0  0  0  0  0  6  0  0
    6.4023   -4.2949   -0.0167 C   0  0  0  0  0  0  0  0  0  7  0  0
    0.8612   -2.6991   -0.0458 C   0  0  0  0  0  0  0  0  0  8  0  0
   -0.4718   -4.8010   -0.0263 O   0  0  0  0  0  0  0  0  0  9  0  0
    1.7708   -4.8936    0.0941 O   0  0  0  0  0  0  0  0  0 10  0  0
    6.9910   -2.6856   -0.0351 Cl  0  0  0  0  0  0  0  0  0 11  0  0
    3.2941   -6.8816    0.0029 Cl  0  0  0  0  0  0  0  0  0 12  0  0
    7.2366   -6.5953    0.0008 C   0  0  0  0  0  0  0  0  0 13  0  0
    4.5503   -1.4067    0.0256 C   0  0  0  0  0  0  0  0  0 14  0  0
    7.4783   -5.2964   -0.0100 C   0  0  0  0  0  0  0  0  0 15  0  0
    5.8868   -7.0572    0.0052 C   0  0  0  0  0  0  0  0  0 16  0  0
    1.9950   -0.4539   -0.0053 C   0  0  0  0  0  0  0  0  0 17  0  0
    4.3371   -0.0961    0.0334 C   0  0  0  0  0  0  0  0  0 18  0  0
    3.0024    0.4048    0.0169 C   0  0  0  0  0  0  0  0  0 19  0  0
  1  2  1  0
  1  3  1  0
  2  6  1  0
  2  7  2  0
  3  5  2  0
  3 14  1  0
  4  8  1  0
  4  9  1  0
  4 10  2  0
  5  8  1  0
  5 17  1  0
  6 12  1  0
  6 16  2  0
  7 11  1  0
  7 15  1  0
 13 15  2  0
 13 16  1  0
 14 18  2  0
 17 19  2  0
 18 19  1  0
M  END
> <Name>
diclofenac

> <Clean Energy>
26.5773

> <Lysotracker red IC50 uM>
>500

> <cytotox LDH>
N

> <Active>
0

> <ALogP>
4.373

> <Molecular_Weight>
296.14864

> <Num_AromaticRings>
2

> <Num_H_Acceptors>
3

> <Num_H_Donors>
2

> <Num_Rings>
2

> <Num_RotatableBonds>
4

> <Molecular_FractionalPolarSurfaceArea>
0.18

> <Lysomotrophic Nadanciva>
-3.10076362601078

> <Lysomotrophic Nadanciva#Enrichment>
0.901480232162046

> <Lysomotrophic Nadanciva#EstPGood>
0.518351133493176

> <Lysomotrophic Nadanciva#Prediction>
false

> <Lysomotrophic Nadanciva_Applicability>
All properties and OPS components are within expected ranges.
Unknown FCFP_6 feature: 1557075936: [*][c](:[*]):[c](N[c](:[c]([*]):[*]):[c]([*]):[*]):[cH]:[*]
Unknown FCFP_6 feature: 403194837: [*]:[c](:[*])N[c]1:[c](Cl):[cH]:[*]:[cH]:[c]:1Cl
Unknown FCFP_6 feature: 2039196715: [*]:[c](:[*])CC(=O)O
Unknown FCFP_6 feature: -2004820955: [*][c](:[*]):[c](CC(=O)O):[cH]:[*]
Unknown FCFP_6 feature: 1360711170: [*]C[c]1:[cH]:[*]:[cH]:[cH]:[c]:1N[c]2:[c](Cl):[cH]:[*]:[cH]:[c]:2Cl
Unknown FCFP_6 feature: -103013106: [*][c](:[*]):[c](N[c]1:[c](Cl):[cH]:[cH]:[cH]:[c]:1Cl):[cH]:[*]
Unknown FCFP_6 feature: -111951324: [*]C(=[*])C[c]1:[cH]:[cH]:[cH]:[cH]:[c]:1N[c](:[c]([*]):[*]):[c]([*]):[*]
Unknown FCFP_6 feature: -1081647581: [*]:[c](:[*])N[c]1:[cH]:[cH]:[cH]:[cH]:[c]:1CC(=O)O
Unknown FCFP_6 feature: -144101270: [*]:[c](:[*])N[c]1:[c](Cl):[cH]:[cH]:[cH]:[c]:1Cl
Unknown FCFP_6 feature: 152429501: [*]N[c]1:[cH]:[*]:[cH]:[cH]:[c]:1CC(=O)O
Unknown FCFP_6 feature: 1161767339: [*][c]1:[c](Cl):[cH]:[cH]:[cH]:[c]:1Cl
Unknown FCFP_6 feature: -103236997: [*]C[c]1:[cH]:[cH]:[cH]:[cH]:[c]:1N[c](:[*]):[*]
Unknown FCFP_6 feature: 1396490582: [*]N[c]1:[cH]:[cH]:[cH]:[cH]:[c]:1CC(=[*])[*]
Unknown FCFP_6 feature: -1724769936: [*]N[c]1:[cH]:[cH]:[cH]:[cH]:[c]:1[*]

> <Lysomotrophic Nadanciva_Applicability#MD>
17.8473296837166

> <Lysomotrophic Nadanciva_Applicability#MDpvalue>
1

> <Lysomotrophic Nadanciva_ClosestDistance>
0.662102864163554

> <Lysomotrophic Nadanciva_ClosestPredictedValue>
2.02484

> <Lysomotrophic Nadanciva_ClosestSample>
Propranolol

> <Lysomotrophic Nadanciva_ClosestValue>
Good

> <Name 2>
diclofenac

$$$$
ibuprofen
  SciTegic09101421012D

 15 15  0  0  0  0            999 V2000
    8.5023   -3.5054    0.0000 O   0  0
    9.8020   -1.2491    0.0000 O   0  0
    5.9028   -1.9977    0.0000 C   0  0
    7.2026   -1.2491    0.0000 C   0  0
    3.3033   -3.5054    0.0000 C   0  0
    4.6031   -1.2491    0.0000 C   0  0
    5.9028   -3.4950    0.0000 C   0  0
    8.5023   -1.9977    0.0000 C   0  0
    3.3033   -1.9977    0.0000 C   0  0
    4.6031   -4.2541    0.0000 C   0  0
    2.0035   -4.2541    0.0000 C   0  0
    7.2026    0.2586    0.0000 C   0  0
    0.7039   -3.5054    0.0000 C   0  0
   -0.5959   -4.2541    0.0000 C   0  0
    0.7039   -1.9977    0.0000 C   0  0
  1  8  2  0
  2  8  1  0
  3  4  1  0
  3  6  2  0
  3  7  1  0
  4  8  1  0
  4 12  1  0
  5  9  2  0
  5 10  1  0
  5 11  1  0
  6  9  1  0
  7 10  2  0
 11 13  1  0
 13 14  1  0
 13 15  1  0
M  END
> <Name>
ibuprofen

> <Lysotracker red IC50 uM>
>500

> <cytotox LDH>
N

> <Active>
0

> <ALogP>
3.607

> <Molecular_Weight>
206.28082

> <Num_AromaticRings>
1

> <Num_H_Acceptors>
2

> <Num_H_Donors>
1

> <Num_Rings>
1

> <Num_RotatableBonds>
4

> <Molecular_FractionalPolarSurfaceArea>
0.155

> <Lysomotrophic Nadanciva>
-6.09074695420051

> <Lysomotrophic Nadanciva#Enrichment>
0.709975519624748

> <Lysomotrophic Nadanciva#EstPGood>
0.40823592378423

> <Lysomotrophic Nadanciva#Prediction>
false

> <Lysomotrophic Nadanciva_Applicability>
Molecular_Weight out of range. Value: 206.28. Training min, max, mean, SD: 208.26, 645.31, 368.38, 97.79.
Unknown FCFP_6 feature: 1649767009: [*]:[cH]:[c](:[cH]:[*])C(C)C(=O)O
Unknown FCFP_6 feature: -1070747033: [*]:[c](:[*])C(C)C(=O)O
Unknown FCFP_6 feature: -2005486458: [*]:[cH]:[c](CC(C)C):[cH]:[*]
Unknown FCFP_6 feature: -1870956676: [*]:[c](:[*])CC(C)C
Unknown FCFP_6 feature: 806205510: [*][c]1:[cH]:[cH]:[c](:[cH]:[cH]:1)C(C)C(=O)O
Unknown FCFP_6 feature: -43283585: CC(C(=O)O)[c]1:[cH]:[cH]:[*]:[cH]:[cH]:1
Unknown FCFP_6 feature: 1384456758: [*][c]1:[cH]:[cH]:[c](CC(C)C):[cH]:[cH]:1
Unknown FCFP_6 feature: -1714290147: [*]C[c]1:[cH]:[cH]:[c](:[cH]:[cH]:1)C(C)C(=[*])[*]
Unknown FCFP_6 feature: 1984060557: [*]C([*])C[c]1:[cH]:[cH]:[c](:[cH]:[cH]:1)C([*])[*]
Unknown FCFP_6 feature: 622887405: CC(C)C[c]1:[cH]:[cH]:[*]:[cH]:[cH]:1

> <Lysomotrophic Nadanciva_Applicability#MD>
9.85284114978263

> <Lysomotrophic Nadanciva_Applicability#MDpvalue>
1

> <Lysomotrophic Nadanciva_ClosestDistance>
0.755270902692722

> <Lysomotrophic Nadanciva_ClosestPredictedValue>
-16.8667

> <Lysomotrophic Nadanciva_ClosestSample>
pilocarpine

> <Lysomotrophic Nadanciva_ClosestValue>
Baseline

> <Name 2>
ibuprofen

$$$$
ketoprofen
  SciTegic09101421012D

 19 20  0  0  0  0            999 V2000
    4.7335   -4.8285    0.0000 O   0  0
    6.2335   -4.8285    0.0000 C   0  0
    6.9790   -6.1217    0.0000 O   0  0
    6.9790   -3.5261    0.0000 C   0  0
    6.2335   -2.2327    0.0000 C   0  0
    6.9790   -0.9395    0.0000 C   0  0
    6.2335    0.3629    0.0000 C   0  0
    4.7335    0.3629    0.0000 C   0  0
    3.9881   -0.9395    0.0000 C   0  0
    4.7335   -2.2327    0.0000 C   0  0
    2.4882   -0.9395    0.0000 C   0  0
    1.7428    0.3629    0.0000 O   0  0
    1.7428   -2.2327    0.0000 C   0  0
    0.2428   -2.2327    0.0000 C   0  0
   -0.5027   -3.5261    0.0000 C   0  0
    0.2428   -4.8285    0.0000 C   0  0
    1.7428   -4.8285    0.0000 C   0  0
    2.4882   -3.5261    0.0000 C   0  0
    8.4789   -3.5261    0.0000 C   0  0
  1  2  1  0
  2  3  2  0
  2  4  1  0
  4  5  1  0
  4 19  1  0
  5  6  1  0
  5 10  2  0
  6  7  2  0
  7  8  1  0
  8  9  2  0
  9 10  1  0
  9 11  1  0
 11 12  2  0
 11 13  1  0
 13 14  1  0
 13 18  2  0
 14 15  2  0
 15 16  1  0
 16 17  2  0
 17 18  1  0
M  END
> <Name>
ketoprofen

> <Lysotracker red IC50 uM>
>500

> <cytotox LDH>
N

> <Active>
0

> <ALogP>
3.361

> <Molecular_Weight>
254.28056

> <Num_AromaticRings>
2

> <Num_H_Acceptors>
3

> <Num_H_Donors>
1

> <Num_Rings>
2

> <Num_RotatableBonds>
4

> <Molecular_FractionalPolarSurfaceArea>
0.207

> <Lysomotrophic Nadanciva>
-4.08145214198276

> <Lysomotrophic Nadanciva#Enrichment>
0.838800962138232

> <Lysomotrophic Nadanciva#EstPGood>
0.482310553229483

> <Lysomotrophic Nadanciva#Prediction>
false

> <Lysomotrophic Nadanciva_Applicability>
All properties and OPS components are within expected ranges.
Unknown FCFP_6 feature: -1070747033: [*]:[c](:[*])C(C)C(=O)O
Unknown FCFP_6 feature: 1649767009: [*]:[cH]:[c](:[cH]:[*])C(C)C(=O)O
Unknown FCFP_6 feature: -451251206: [*]C([*])[c]1:[cH]:[*]:[cH]:[c](:[cH]:1)C(=[*])[*]
Unknown FCFP_6 feature: -43283585: CC(C(=O)O)[c]1:[cH]:[cH]:[*]:[cH]:[cH]:1
Unknown FCFP_6 feature: -758798329: [*]C(=[*])[c]1:[cH]:[cH]:[cH]:[c](:[cH]:1)C(C)C(=O)O
Unknown FCFP_6 feature: -1696375691: [*]C([*])[c]1:[cH]:[cH]:[cH]:[c](:[cH]:1)C(=[*])[*]
Unknown FCFP_6 feature: -1284423980: [*][c]1:[cH]:[cH]:[cH]:[c](:[cH]:1)C(=O)[c](:[*]):[*]
Unknown FCFP_6 feature: 1407684654: [*]C([*])[c]1:[cH]:[cH]:[cH]:[c](:[cH]:1)C(=O)[c](:[cH]:[*]):[cH]:[*]
Unknown FCFP_6 feature: -50295147: [*]C(=[*])C(C)[c]1:[cH]:[cH]:[cH]:[c](:[cH]:1)C(=O)[c](:[*]):[*]
Unknown FCFP_6 feature: -1979065411: [*][c]1:[*]:[cH]:[cH]:[c](:[cH]:1)C(=O)[c]2:[cH]:[cH]:[*]:[cH]:[cH]:2
Unknown FCFP_6 feature: -1306564371: [*]:[cH]:[c](:[cH]:[*])C(=O)[c]1:[cH]:[cH]:[cH]:[cH]:[cH]:1

> <Lysomotrophic Nadanciva_Applicability#MD>
8.96821753991136

> <Lysomotrophic Nadanciva_Applicability#MDpvalue>
1

> <Lysomotrophic Nadanciva_ClosestDistance>
0.67624339189974

> <Lysomotrophic Nadanciva_ClosestPredictedValue>
2.02484

> <Lysomotrophic Nadanciva_ClosestSample>
Propranolol

> <Lysomotrophic Nadanciva_ClosestValue>
Good

> <Name 2>
ketoprofen

$$$$
ketorolac
  SciTegic09101421012D

 19 21  0  0  0  0            999 V2000
    1.9245    0.4762    0.0000 O   0  0
    0.9216   -0.6328    0.0000 C   0  0
   -0.5442   -0.3243    0.0000 O   0  0
    1.3845   -2.0601    0.0000 C   0  0
    0.5069   -3.2752    0.0000 C   0  0
    1.3845   -4.4902    0.0000 C   0  0
    2.8118   -4.0274    0.0000 N   0  0
    2.8118   -2.5230    0.0000 C   0  0
    4.2390   -2.0601    0.0000 C   0  0
    5.1166   -3.2752    0.0000 C   0  0
    4.2390   -4.4902    0.0000 C   0  0
    4.7019   -5.9175    0.0000 C   0  0
    3.6990   -7.0265    0.0000 O   0  0
    6.1677   -6.2260    0.0000 C   0  0
    6.6306   -7.6533    0.0000 C   0  0
    8.0964   -7.9620    0.0000 C   0  0
    9.0994   -6.8433    0.0000 C   0  0
    8.6364   -5.4257    0.0000 C   0  0
    7.1706   -5.1074    0.0000 C   0  0
  1  2  1  0
  2  3  2  0
  2  4  1  0
  4  5  1  0
  4  8  1  0
  5  6  1  0
  6  7  1  0
  7  8  1  0
  7 11  1  0
  8  9  2  0
  9 10  1  0
 10 11  2  0
 11 12  1  0
 12 13  2  0
 12 14  1  0
 14 15  1  0
 14 19  2  0
 15 16  2  0
 16 17  1  0
 17 18  2  0
 18 19  1  0
M  END
> <Name>
ketorolac

> <Lysotracker red IC50 uM>
>500

> <cytotox LDH>
N

> <Active>
0

> <ALogP>
2.832

> <Molecular_Weight>
255.26861

> <Num_AromaticRings>
2

> <Num_H_Acceptors>
3

> <Num_H_Donors>
1

> <Num_Rings>
3

> <Num_RotatableBonds>
3

> <Molecular_FractionalPolarSurfaceArea>
0.239

> <Lysomotrophic Nadanciva>
-5.32476640804481

> <Lysomotrophic Nadanciva#Enrichment>
0.758892476245647

> <Lysomotrophic Nadanciva#EstPGood>
0.436363173841247

> <Lysomotrophic Nadanciva#Prediction>
false

> <Lysomotrophic Nadanciva_Applicability>
All properties and OPS components are within expected ranges.
Unknown FCFP_6 feature: -1070747033: [*]:[c](:[*])C(C)C(=O)O
Unknown FCFP_6 feature: -1550194180: OC(=O)C1CCn2:[*]:[*]:[cH]:[c]1:2
Unknown FCFP_6 feature: -728302594: [*]C(=[*])C1CCn(:[*]):[c]1:[*]
Unknown FCFP_6 feature: -1076532720: [*]C1CCn2:[c]([*]):[*]:[*]:[c]1:2
Unknown FCFP_6 feature: 2042408948: [*]C1CCn2:[c]1:[cH]:[cH]:[c]:2C(=[*])[*]
Unknown FCFP_6 feature: -556615799: [*]C(=[*])C1CCn2:[c]([*]):[cH]:[cH]:[c]1:2
Unknown FCFP_6 feature: -1541770642: [*]:[c](:[*])C(=O)[c]1:[cH]:[cH]:[c]2[*][*]Cn:1:2
Unknown FCFP_6 feature: -23657764: [*]n1:[*]:[*]:[cH]:[c]:1C(=O)[c](:[cH]:[*]):[cH]:[*]
Unknown FCFP_6 feature: -616979638: [*][c]1:[cH]:[cH]:[c]2C(CCn:1:2)C(=O)O
Unknown FCFP_6 feature: 1381201963: [*][c]1:[*]:[cH]:[c]2C(CCn:1:2)C(=O)O
Unknown FCFP_6 feature: -795603016: [*]C(=[*])C1CCn2:[c]1:[cH]:[cH]:[c]:2C(=[*])[*]
Unknown FCFP_6 feature: -2022942158: [*]C(=[*])C1CCn2:[c]1:[cH]:[cH]:[c]:2C(=O)[c](:[*]):[*]
Unknown FCFP_6 feature: -325419803: [*]C(=[*])[c]1:[cH]:[cH]:[c]2C(CCn:1:2)C(=O)O
Unknown FCFP_6 feature: 559198313: [*]C(=[*])C1CCn2:[c]1:[cH]:[cH]:[c]:2C(=[*])[*]
Unknown FCFP_6 feature: 565890317: [*]C1[*]Cn2:[c]1:[cH]:[cH]:[c]:2C(=O)[c](:[*]):[*]
Unknown FCFP_6 feature: -814761213: [*]C1CCn2:[c]1:[cH]:[cH]:[c]:2C(=O)[c](:[cH]:[*]):[cH]:[*]
Unknown FCFP_6 feature: -1077614291: O=C([c]1:[cH]:[cH]:[*]:[cH]:[cH]:1)[c]2:[cH]:[cH]:[c]3[*][*]Cn:2:3
Unknown FCFP_6 feature: -1311685137: [*]n1:[*]:[*]:[cH]:[c]:1C(=O)[c]2:[cH]:[cH]:[cH]:[cH]:[cH]:2
Unknown FCFP_6 feature: -1284423980: [*][c]1:[cH]:[cH]:[cH]:[c](:[cH]:1)C(=O)[c](:[*]):[*]

> <Lysomotrophic Nadanciva_Applicability#MD>
8.23977793716736

> <Lysomotrophic Nadanciva_Applicability#MDpvalue>
1

> <Lysomotrophic Nadanciva_ClosestDistance>
0.728285649117802

> <Lysomotrophic Nadanciva_ClosestPredictedValue>
10.053

> <Lysomotrophic Nadanciva_ClosestSample>
desipramine

> <Lysomotrophic Nadanciva_ClosestValue>
Good

> <Name 2>
ketorolac

$$$$
tenoxicam
  SciTegic09101421012D

 22 24  0  0  0  0            999 V2000
    4.5563   -0.9328    0.0000 C   0  0
    5.8544   -1.6730    0.0000 N   0  0
    5.8544   -3.1763    0.0000 C   0  0
    4.5563   -3.9278    0.0000 C   0  0
    4.5563   -5.4196    0.0000 O   0  0
    3.2580   -3.1763    0.0000 N   0  0
    1.9597   -3.9278    0.0000 C   0  0
    0.6616   -3.1763    0.0000 C   0  0
   -0.6367   -3.9278    0.0000 C   0  0
   -0.6367   -5.4196    0.0000 C   0  0
    0.6616   -6.1712    0.0000 C   0  0
    1.9597   -5.4196    0.0000 N   0  0
    7.1527   -3.9278    0.0000 C   0  0
    7.1527   -5.4196    0.0000 O   0  0
    8.4510   -3.1763    0.0000 C   0  0
    9.8744   -3.6432    0.0000 S   0  0
   10.7513   -2.4246    0.0000 C   0  0
    9.8744   -1.2174    0.0000 C   0  0
    8.4510   -1.6730    0.0000 C   0  0
    7.1527   -0.9328    0.0000 S   0  0
    7.8930    0.3654    0.0000 O   0  0
    6.4011    0.3654    0.0000 O   0  0
  1  2  1  0
  2  3  1  0
  2 20  1  0
  3  4  2  0
  3 13  1  0
  4  5  1  0
  4  6  1  0
  6  7  1  0
  7  8  1  0
  7 12  2  0
  8  9  2  0
  9 10  1  0
 10 11  2  0
 11 12  1  0
 13 14  2  0
 13 15  1  0
 15 16  1  0
 15 19  2  0
 16 17  1  0
 17 18  2  0
 18 19  1  0
 19 20  1  0
 20 21  2  0
 20 22  2  0
M  END
> <Name>
tenoxicam

> <Lysotracker red IC50 uM>
>500

> <cytotox LDH>
N

> <Active>
0

> <ALogP>
1.392

> <Molecular_Weight>
337.37413

> <Num_AromaticRings>
2

> <Num_H_Acceptors>
6

> <Num_H_Donors>
2

> <Num_Rings>
3

> <Num_RotatableBonds>
2

> <Molecular_FractionalPolarSurfaceArea>
0.445

> <Lysomotrophic Nadanciva>
-17.6507952351512

> <Lysomotrophic Nadanciva#Enrichment>
0.168857079028153

> <Lysomotrophic Nadanciva#EstPGood>
0.0970928204411881

> <Lysomotrophic Nadanciva#Prediction>
false

> <Lysomotrophic Nadanciva_Applicability>
All properties and OPS components are within expected ranges.
Unknown FCFP_6 feature: -1305834919: [*]NC(=C([*])[*])O
Unknown FCFP_6 feature: -1226105714: [*]N\C(=C\1/N(C)S(=[*])(=[*])[*]:[c](:[*])C1=O)\O
Unknown FCFP_6 feature: -1797108367: [*]N([*])\C(=C(\O)/N[c](:[*]):[*])\C(=[*])[*]
Unknown FCFP_6 feature: 1199218087: [*]C(=C(O)N[c](:[cH]:[*]):n:[*])[*]
Unknown FCFP_6 feature: -1228822557: [*]N1[*][c]2:[*]:[*]:s:[c]:2C(=O)C1=C([*])[*]
Unknown FCFP_6 feature: 1524983069: [*]=C1[*]S(=[*])(=[*])[c]2:[cH]:[cH]:s:[c]:2C1=O
Unknown FCFP_6 feature: 732983171: [*][c]1:s:[cH]:[cH]:[c]:1S(=[*])(=[*])[*]
Unknown FCFP_6 feature: 1513716274: [*]N1[*]C(=[*])[c]2:s:[cH]:[cH]:[c]:2S1(=O)=O
Unknown FCFP_6 feature: 239648052: [*]N\C(=C\1/N(C)S(=O)(=O)[c]2:[cH]:[*]:[*]:[c]:2C1=O)\O
Unknown FCFP_6 feature: -1914464174: [*]:[c](:[*])N\C(=C\1/N(C)S(=O)(=O)[c]2:[*]:[*]:s:[c]:2C1=O)\O
Unknown FCFP_6 feature: -1329075091: [*]=S1(=[*])[*]:[c](:[*])C(=O)\C(=C(/O)\N[c](:[cH]:[*]):n:[*])\N1C
Unknown FCFP_6 feature: 1117900778: [*]N([*])\C(=C(\O)/N[c]1:[cH]:[cH]:[*]:[cH]:n:1)\C(=[*])[*]
Unknown FCFP_6 feature: -1389897266: [*]C(=C(O)N[c]1:[cH]:[cH]:[cH]:[cH]:n:1)[*]
Unknown FCFP_6 feature: 122921445: [*]N\C(=C\1/N(C)S(=[*])(=[*])[c]2:[cH]:[cH]:s:[c]:2C1=O)\O
Unknown FCFP_6 feature: -1218587971: [*]N1C(=C([*])[*])C(=O)[c]2:s:[cH]:[cH]:[c]:2S1(=O)=O
Unknown FCFP_6 feature: 1295610619: [*]=C1[*]S(=[*])(=[*])[c]2:[cH]:[cH]:s:[c]:2C1=O
Unknown FCFP_6 feature: 135861701: [*]=C1[*][*]S(=[*])(=[*])[c]2:[cH]:[cH]:s:[c]1:2
Unknown FCFP_6 feature: 2046350366: [*]N1[*]C(=[*])[c]2:s:[cH]:[cH]:[c]:2S1(=O)=O
Unknown FCFP_6 feature: 289438797: [*]=C1N(C)S(=O)(=O)[c]2:[cH]:[cH]:s:[c]:2C1=O
Unknown FCFP_6 feature: -159383293: [*]C(=C1N(C)S(=O)(=O)[c]2:[cH]:[cH]:s:[c]:2C1=[*])[*]

> <Lysomotrophic Nadanciva_Applicability#MD>
7.19096907280715

> <Lysomotrophic Nadanciva_Applicability#MDpvalue>
1

> <Lysomotrophic Nadanciva_ClosestDistance>
0.475964692745771

> <Lysomotrophic Nadanciva_ClosestPredictedValue>
-23.7081

> <Lysomotrophic Nadanciva_ClosestSample>
piroxicam

> <Lysomotrophic Nadanciva_ClosestValue>
Baseline

> <Name 2>
tenoxicam

$$$$
atorvastatin
  SciTegic09101421012D

 43 46  0  0  0  0            999 V2000
    5.6259    1.0410    0.0000 O   0  0
    6.0987   -0.3955    0.0000 C   0  0
    5.0804   -1.5047    0.0000 O   0  0
    7.5533   -0.7045    0.0000 C   0  0
    8.0262   -2.1228    0.0000 C   0  0  2  0  0  0
    9.4626   -1.6683    0.0000 H   0  0
    6.5896   -2.5957    0.0000 O   0  0
    8.4989   -3.5594    0.0000 C   0  0
    7.4806   -4.6685    0.0000 C   0  0  2  0  0  0
    8.6080   -5.6868    0.0000 H   0  0
    6.3714   -3.6685    0.0000 O   0  0
    6.4805   -5.7959    0.0000 C   0  0
    6.9533   -7.2142    0.0000 C   0  0
    5.9350   -8.3416    0.0000 N   0  0
    4.4440   -8.1780    0.0000 C   0  0
    3.6984   -6.8688    0.0000 C   0  0
    4.4440   -5.5777    0.0000 C   0  0
    3.6984   -4.2685    0.0000 C   0  0
    2.1892   -4.2685    0.0000 C   0  0
    1.4438   -2.9775    0.0000 F   0  0
    1.4438   -5.5777    0.0000 C   0  0
    2.1892   -6.8688    0.0000 C   0  0
    3.8257   -9.5599    0.0000 C   0  0
    2.3710   -9.8690    0.0000 C   0  0
    1.3527   -8.7416    0.0000 C   0  0
   -0.1019   -9.0508    0.0000 C   0  0
   -0.5746  -10.4873    0.0000 C   0  0
    0.4255  -11.5965    0.0000 C   0  0
    1.8983  -11.2873    0.0000 C   0  0
    4.9531  -10.5600    0.0000 C   0  0
    4.7895  -12.0511    0.0000 C   0  0
    3.4257  -12.6692    0.0000 N   0  0
    3.2621  -14.1604    0.0000 C   0  0
    1.8983  -14.7604    0.0000 C   0  0
    1.7347  -16.2514    0.0000 C   0  0
    2.9530  -17.1424    0.0000 C   0  0
    4.3167  -16.5241    0.0000 C   0  0
    4.4804  -15.0331    0.0000 C   0  0
    6.0078  -12.9239    0.0000 O   0  0
    6.2441   -9.7963    0.0000 C   0  0
    7.6261  -10.4146    0.0000 C   0  0
    7.7715  -11.9056    0.0000 C   0  0
    8.8444   -9.5417    0.0000 C   0  0
  1  2  2  0
  2  3  1  0
  2  4  1  0
  4  5  1  0
  5  6  1  6
  5  7  1  0
  5  8  1  0
  8  9  1  0
  9 10  1  6
  9 11  1  0
  9 12  1  0
 12 13  1  0
 13 14  1  0
 14 15  1  0
 14 40  1  0
 15 16  1  0
 15 23  2  0
 16 17  2  0
 16 22  1  0
 17 18  1  0
 18 19  2  0
 19 20  1  0
 19 21  1  0
 21 22  2  0
 23 24  1  0
 23 30  1  0
 24 25  2  0
 24 29  1  0
 25 26  1  0
 26 27  2  0
 27 28  1  0
 28 29  2  0
 30 31  1  0
 30 40  2  0
 31 32  1  0
 31 39  2  0
 32 33  1  0
 33 34  2  0
 33 38  1  0
 34 35  1  0
 35 36  2  0
 36 37  1  0
 37 38  2  0
 40 41  1  0
 41 42  1  0
 41 43  1  0
M  END
> <Name>
atorvastatin

> <Lysotracker red IC50 uM>
>500

> <cytotox LDH>
N

> <Active>
0

> <ALogP>
5.555

> <Molecular_Weight>
558.6398

> <Num_AromaticRings>
4

> <Num_H_Acceptors>
5

> <Num_H_Donors>
4

> <Num_Rings>
4

> <Num_RotatableBonds>
12

> <Molecular_FractionalPolarSurfaceArea>
0.195

> <Lysomotrophic Nadanciva>
-6.99232966825964

> <Lysomotrophic Nadanciva#Enrichment>
0.653219594163702

> <Lysomotrophic Nadanciva#EstPGood>
0.375601266644129

> <Lysomotrophic Nadanciva#Prediction>
false

> <Lysomotrophic Nadanciva_Applicability>
All properties and OPS components are within expected ranges.
Unknown FCFP_6 feature: 394124770: [*]C([*])CC(=O)O
Unknown FCFP_6 feature: 351479548: [*]C[C@@H](O)CC(=O)O
Unknown FCFP_6 feature: 1242035682: [*]C([*])C[C@@H](O)CC(=[*])[*]
Unknown FCFP_6 feature: 349851805: [*]C[C@@H](O)C[C@@H](O)C[*]
Unknown FCFP_6 feature: 354409919: [*]C[C@H](O)CCn(:[*]):[*]
Unknown FCFP_6 feature: -1076532720: [*]C1CCn2:[c]([*]):[*]:[*]:[c]1:2
Unknown FCFP_6 feature: 453888395: [*]CCn1:[c](C([*])[*]):[c]([*]):[c]([*]):[c]:1[c](:[*]):[*]
Unknown FCFP_6 feature: 1198761050: [*]Cn1:[c]([*]):[c]([*]):[c]([c](:[*]):[*]):[c]:1[c](:[cH]:[*]):[cH]:[*]
Unknown FCFP_6 feature: -525610209: [*]n1:[c]([*]):[c](C(=[*])[*]):[c]([c](:[cH]:[*]):[cH]:[*]):[c]:1[c](:[*]):[*]
Unknown FCFP_6 feature: 1764617907: [*][c]1:[*]:[*]:[c]([*]):[c]:1[c]2:[cH]:[cH]:[*]:[cH]:[cH]:2
Unknown FCFP_6 feature: -98038646: [*]NC(=O)[c]1:[c](C([*])[*]):n([*]):[c]([*]):[c]:1[c](:[*]):[*]
Unknown FCFP_6 feature: -554189728: [*]Cn1:[c]([*]):[c]([*]):[c](C(=[*])[*]):[c]:1C(C)C
Unknown FCFP_6 feature: -260991129: [*]n1:[*]:[*]:[c]([*]):[c]:1C(C)C
Unknown FCFP_6 feature: -1165103109: [*]C([*])C[C@@H](O)CC(=O)O
Unknown FCFP_6 feature: 145442229: [*]C[C@@H](O)C[C@@H](O)CC(=O)O
Unknown FCFP_6 feature: 1912284788: [*]CC[C@@H](O)C[C@@H](O)CC(=[*])[*]
Unknown FCFP_6 feature: -266418834: [*]C[C@H](O)C[C@H](O)CCn(:[*]):[*]
Unknown FCFP_6 feature: -1669075679: [*]C([*])C[C@H](O)CCn1:[c]([*]):[*]:[*]:[c]:1[*]
Unknown FCFP_6 feature: -1226650397: [*]C[C@H](O)CCn1:[c](C([*])[*]):[c]([*]):[c]([*]):[c]:1[c](:[*]):[*]
Unknown FCFP_6 feature: -1622524531: [*]C([*])CCn1:[c](C(C)C):[c](C(=[*])[*]):[c]([c](:[*]):[*]):[c]:1[c](:[cH]:[*]):[cH]:[*]
Unknown FCFP_6 feature: -1978810118: [*]CCn1:[c](C([*])[*]):[c](C(=[*])[*]):[c]([c](:[cH]:[*]):[cH]:[*]):[c]:1[c]2:[cH]:[cH]:[*]:[cH]:[cH]:2
Unknown FCFP_6 feature: -823354005: [*]Cn1:[c]([*]):[c]([*]):[c]([c](:[*]):[*]):[c]:1[c]2:[cH]:[cH]:[c]([*]):[cH]:[cH]:2
Unknown FCFP_6 feature: -280173323: [*]n1:[*]:[*]:[c]([*]):[c]:1[c]2:[cH]:[cH]:[c](F):[cH]:[cH]:2
Unknown FCFP_6 feature: 565114151: [*]:[c](:[*])[c]1:[cH]:[cH]:[c](F):[cH]:[cH]:1
Unknown FCFP_6 feature: -808487514: [*]Cn1:[c](C([*])[*]):[c](C(=O)N[*]):[c]([c]2:[cH]:[cH]:[*]:[cH]:[cH]:2):[c]:1[c](:[cH]:[*]):[cH]:[*]
Unknown FCFP_6 feature: -675299396: [*]n1:[c]([*]):[c](C(=[*])[*]):[c]([c]2:[cH]:[cH]:[cH]:[cH]:[cH]:2):[c]:1[c](:[*]):[*]
Unknown FCFP_6 feature: 751214629: [*][c]1:[*]:[*]:[c]([*]):[c]:1[c]2:[cH]:[cH]:[cH]:[cH]:[cH]:2
Unknown FCFP_6 feature: -47391358: [*]:[c](:[*])[c]1:[cH]:[cH]:[cH]:[cH]:[cH]:1
Unknown FCFP_6 feature: -280972266: [*]Cn1:[c](C(C)C):[c](C(=O)N[c](:[*]):[*]):[c]([c](:[cH]:[*]):[cH]:[*]):[c]:1[c](:[*]):[*]
Unknown FCFP_6 feature: 239336427: [*]C([*])[c]1:n([*]):[c]([*]):[c]([c](:[*]):[*]):[c]:1C(=O)N[c](:[cH]:[*]):[cH]:[*]
Unknown FCFP_6 feature: -1826430238: [*]:[c](:[*])C(=O)N[c]1:[cH]:[cH]:[cH]:[cH]:[cH]:1
Unknown FCFP_6 feature: -792685140: [*]C(=[*])N[c]1:[cH]:[cH]:[cH]:[cH]:[cH]:1
Unknown FCFP_6 feature: -1724769936: [*]N[c]1:[cH]:[cH]:[cH]:[cH]:[c]:1[*]
Unknown FCFP_6 feature: -1199896414: [*]CCn1:[c](C(C)C):[c](C(=O)N[*]):[c]([c](:[*]):[*]):[c]:1[c](:[*]):[*]

> <Lysomotrophic Nadanciva_Applicability#MD>
17.8018999622789

> <Lysomotrophic Nadanciva_Applicability#MDpvalue>
1

> <Lysomotrophic Nadanciva_ClosestDistance>
0.844218426826115

> <Lysomotrophic Nadanciva_ClosestPredictedValue>
11.8062

> <Lysomotrophic Nadanciva_ClosestSample>
lapatinib

> <Lysomotrophic Nadanciva_ClosestValue>
Good

> <Name 2>
atorvastatin

$$$$
fluvastatin
  SciTegic09101421012D

 30 32  0  0  0  0            999 V2000
    3.9253   -3.1416    0.0000 C   0  0
    2.6372   -3.8993    0.0000 C   0  0
    1.3339   -3.1416    0.0000 C   0  0
    1.3339   -1.6413    0.0000 C   0  0
    3.9253   -1.6413    0.0000 C   0  0
    2.6372   -0.8988    0.0000 C   0  0
    1.2430   -8.9760    0.0000 C   0  0
   -0.2422   -8.8245    0.0000 C   0  0
   -0.8483   -7.4455    0.0000 C   0  0
    0.0306   -6.2331    0.0000 C   0  0
    1.5157   -6.3998    0.0000 C   0  0
    2.1371   -7.7637    0.0000 C   0  0
    3.6222   -7.6121    0.0000 N   0  0
    6.0923   -8.4001    0.0000 C   0  0
    4.6224   -8.7184    0.0000 C   0  0
    4.1526  -10.1430    0.0000 C   0  0
    3.9253   -6.1421    0.0000 C   0  0
    2.6372   -5.3996    0.0000 C   0  0
    2.6372    0.6015    0.0000 F   0  0
    6.5318   -6.1421    0.0000 C   0  0
    9.1232   -6.1421    0.0000 C   0  0
    7.8200   -5.3996    0.0000 C   0  0  2  0  0  0
    7.8200   -3.8993    0.0000 O   0  0
   10.4113   -5.3996    0.0000 C   0  0  1  0  0  0
   10.4113   -3.8993    0.0000 O   0  0
   11.7146   -6.1421    0.0000 C   0  0
   13.0027   -3.8993    0.0000 O   0  0
   13.0027   -5.3996    0.0000 C   0  0
   14.3059   -6.1421    0.0000 O   0  0
    5.2285   -5.3996    0.0000 C   0  0
  1  2  2  0
  1  5  1  0
  2 18  1  0
  2  3  1  0
  3  4  2  0
  4  6  1  0
  5  6  2  0
  6 19  1  0
  7  8  2  0
  7 12  1  0
  8  9  1  0
  9 10  2  0
 10 11  1  0
 11 18  1  0
 11 12  2  0
 12 13  1  0
 13 17  1  0
 13 15  1  0
 14 15  1  0
 15 16  1  0
 17 18  2  0
 17 30  1  0
 20 30  2  0
 20 22  1  0
 21 22  1  0
 21 24  1  0
 22 23  1  1
 24 26  1  0
 24 25  1  1
 26 28  1  0
 27 28  2  0
 28 29  1  0
M  END
> <Name>
fluvastatin

> <Lysotracker red IC50 uM>
>500

> <cytotox LDH>
N

> <Active>
0

> <ALogP>
4.244

> <Molecular_Weight>
411.46594

> <Num_AromaticRings>
3

> <Num_H_Acceptors>
4

> <Num_H_Donors>
3

> <Num_Rings>
3

> <Num_RotatableBonds>
8

> <Molecular_FractionalPolarSurfaceArea>
0.194

> <Lysomotrophic Nadanciva>
-1.89095215189057

> <Lysomotrophic Nadanciva#Enrichment>
0.97734026743719

> <Lysomotrophic Nadanciva#EstPGood>
0.561970653776384

> <Lysomotrophic Nadanciva#Prediction>
false

> <Lysomotrophic Nadanciva_Applicability>
All properties and OPS components are within expected ranges.
Unknown FCFP_6 feature: 1315386651: [*]:n(:[*])C(C)C
Unknown FCFP_6 feature: 1764617907: [*][c]1:[*]:[*]:[c]([*]):[c]:1[c]2:[cH]:[cH]:[*]:[cH]:[cH]:2
Unknown FCFP_6 feature: 77460506: [*]n1:[c]([*]):[c]([c](:[*]):[*]):[c]2:[cH]:[cH]:[*]:[cH]:[c]:1:2
Unknown FCFP_6 feature: -898059030: [*]C([*])n1:[c]([*]):[c]([*]):[c]2:[cH]:[*]:[cH]:[cH]:[c]:1:2
Unknown FCFP_6 feature: 254728116: [*][c]1:[c](C=[*]):n(C(C)C):[c](:[cH]:[*]):[c]:1:[*]
Unknown FCFP_6 feature: 516034398: [*][c]1:[*]:[*]:[c](:[*]):n:1C(C)C
Unknown FCFP_6 feature: -1274959444: [*]\C=C\[c]1:n(C([*])[*]):[c](:[*]):[c](:[*]):[c]:1[c](:[*]):[*]
Unknown FCFP_6 feature: -1281608302: [*]n1:[c](C=[*]):[c]([c](:[cH]:[*]):[cH]:[*]):[c](:[cH]:[*]):[c]:1:[*]
Unknown FCFP_6 feature: -2132260269: [*]C[C@H](O)\C=C\[c](:[*]):[*]
Unknown FCFP_6 feature: 349851805: [*]C[C@@H](O)C[C@@H](O)C[*]
Unknown FCFP_6 feature: 1109236509: [*]\C=C\[C@@H](O)CC([*])[*]
Unknown FCFP_6 feature: 1242035682: [*]C([*])C[C@@H](O)CC(=[*])[*]
Unknown FCFP_6 feature: 351479548: [*]C[C@@H](O)CC(=O)O
Unknown FCFP_6 feature: 394124770: [*]C([*])CC(=O)O
Unknown FCFP_6 feature: -146986482: [*]C([*])\C=C\[c]1:n([*]):[*]:[*]:[c]:1[*]
Unknown FCFP_6 feature: -286233013: [*][c]1:[*]:[*]:[c](:[*]):[c]:1[c]2:[cH]:[cH]:[c](F):[cH]:[cH]:2
Unknown FCFP_6 feature: -678933171: [*]n1:[c](C=[*]):[c]([c]2:[cH]:[cH]:[c]([*]):[cH]:[cH]:2):[c](:[cH]:[*]):[c]:1:[*]
Unknown FCFP_6 feature: 565114151: [*]:[c](:[*])[c]1:[cH]:[cH]:[c](F):[cH]:[cH]:1
Unknown FCFP_6 feature: -1137784232: [*]C([*])n1:[c]([*]):[c]([*]):[c]2:[cH]:[cH]:[cH]:[cH]:[c]:1:2
Unknown FCFP_6 feature: 548255853: [*]n1:[c]([*]):[c]([c](:[*]):[*]):[c]2:[cH]:[cH]:[cH]:[cH]:[c]:1:2
Unknown FCFP_6 feature: -1413460794: [*]C([*])n1:[c](C=[*]):[c]([c](:[cH]:[*]):[cH]:[*]):[c]2:[cH]:[cH]:[cH]:[cH]:[c]:1:2
Unknown FCFP_6 feature: -84565020: [*]=C[c]1:n(C(C)C):[c]2:[cH]:[cH]:[cH]:[cH]:[c]:2:[c]:1[c](:[*]):[*]
Unknown FCFP_6 feature: 54167347: [*]\C=C\[c]1:n(C(C)C):[c]2:[cH]:[cH]:[*]:[cH]:[c]:2:[c]:1[c](:[*]):[*]
Unknown FCFP_6 feature: 1744628306: [*]C([*])\C=C\[c]1:n(C(C)C):[c]2:[cH]:[*]:[*]:[cH]:[c]:2:[c]:1[c](:[cH]:[*]):[cH]:[*]
Unknown FCFP_6 feature: 2017755994: [*]\C=C\[c]1:n(C([*])[*]):[c]2:[cH]:[*]:[cH]:[cH]:[c]:2:[c]:1[c]3:[cH]:[cH]:[*]:[cH]:[cH]:3
Unknown FCFP_6 feature: 1756960398: [*]C([*])C[C@H](O)\C=C\[c]1:n([*]):[*]:[*]:[c]:1[*]
Unknown FCFP_6 feature: 915819681: [*]\C=C\[C@@H](O)C[C@@H](O)CC(=[*])[*]
Unknown FCFP_6 feature: -1741347080: [*]C[C@H](O)C[C@H](O)\C=C\[c](:[*]):[*]
Unknown FCFP_6 feature: 145442229: [*]C[C@@H](O)C[C@@H](O)CC(=O)O
Unknown FCFP_6 feature: -1165103109: [*]C([*])C[C@@H](O)CC(=O)O
Unknown FCFP_6 feature: 534543383: [*]C[C@H](O)\C=C\[c]1:n(C([*])[*]):[c](:[*]):[c](:[*]):[c]:1[c](:[*]):[*]

> <Lysomotrophic Nadanciva_Applicability#MD>
17.713649142236

> <Lysomotrophic Nadanciva_Applicability#MDpvalue>
1

> <Lysomotrophic Nadanciva_ClosestDistance>
0.664460042589166

> <Lysomotrophic Nadanciva_ClosestPredictedValue>
12.2165

> <Lysomotrophic Nadanciva_ClosestSample>
sunitinib

> <Lysomotrophic Nadanciva_ClosestValue>
Good

> <Name 2>
fluvastatin

$$$$
pravastatin
  SciTegic09101421012D

 31 32  0  0  0  0            999 V2000
    3.2564   -8.1777    0.0000 C   0  0
    3.2564   -9.6764    0.0000 C   0  0  1  0  0  0
    4.5506  -10.4257    0.0000 C   0  0
    5.8562   -9.6764    0.0000 C   0  0
    7.1505  -10.4257    0.0000 C   0  0
    8.4561   -9.6764    0.0000 C   0  0
    5.8562   -8.1777    0.0000 C   0  0  1  0  0  0
    8.4561   -8.1777    0.0000 C   0  0  2  0  0  0
    9.7503   -7.4284    0.0000 C   0  0
    7.1505   -7.4284    0.0000 C   0  0  2  0  0  0
    7.1505   -5.9184    0.0000 C   0  0
    8.4561   -5.1692    0.0000 C   0  0
    8.4561   -3.6706    0.0000 C   0  0  1  0  0  0
    9.7503   -2.9213    0.0000 O   0  0
    7.1505   -2.9213    0.0000 C   0  0
    7.1505   -1.4226    0.0000 C   0  0  2  0  0  0
    8.4561   -0.6619    0.0000 C   0  0
    9.9547   -0.6619    0.0000 C   0  0
   10.7040    0.6323    0.0000 O   0  0
   10.7040   -1.9676    0.0000 O   0  0
    5.8562   -0.6619    0.0000 O   0  0
    5.8562   -6.6677    0.0000 H   0  0
    1.9507  -10.4257    0.0000 O   0  0
    4.5506   -7.4284    0.0000 C   0  0  1  0  0  0
    4.5506   -5.9184    0.0000 O   0  0
    3.2564   -5.1692    0.0000 C   0  0
    3.2564   -3.6706    0.0000 O   0  0
    1.9507   -5.9184    0.0000 C   0  0  1  0  0  0
    1.9507   -7.4284    0.0000 C   0  0
    0.6564   -5.1692    0.0000 C   0  0
   -0.6492   -5.9184    0.0000 C   0  0
  1 24  1  0
  1  2  1  0
  2  3  1  0
  2 23  1  1
  3  4  2  0
  4  7  1  0
  4  5  1  0
  5  6  2  0
  6  8  1  0
  7 24  1  0
  7 10  1  0
  7 22  1  1
  8 10  1  0
  8  9  1  1
 10 11  1  1
 11 12  1  0
 13 12  1  6
 13 14  1  0
 13 15  1  0
 15 16  1  0
 16 21  1  1
 16 17  1  0
 17 18  1  0
 18 19  2  0
 18 20  1  0
 24 25  1  6
 25 26  1  0
 26 27  2  0
 26 28  1  0
 28 29  1  1
 28 30  1  0
 30 31  1  0
M  END
> <Name>
pravastatin

> <Lysotracker red IC50 uM>
>500

> <cytotox LDH>
N

> <Active>
0

> <ALogP>
2.156

> <Molecular_Weight>
424.52774

> <Num_AromaticRings>
0

> <Num_H_Acceptors>
7

> <Num_H_Donors>
4

> <Num_Rings>
2

> <Num_RotatableBonds>
11

> <Molecular_FractionalPolarSurfaceArea>
0.277

> <Lysomotrophic Nadanciva>
-11.9328301232185

> <Lysomotrophic Nadanciva#Enrichment>
0.377489125420812

> <Lysomotrophic Nadanciva#EstPGood>
0.217056247116967

> <Lysomotrophic Nadanciva#Prediction>
false

> <Lysomotrophic Nadanciva_Applicability>
Count<FCFP_6:16> out of range. Value: 0. Training min, max, mean, SD: 1, 1, 1, 0.
Num_AromaticRings out of range. Value: 0. Training min, max, mean, SD: 1, 5, 2.275, 1.086.
Unknown FCFP_6 feature: 355654354: [*]O[C@H]1C[C@H](O)C=[*][C@H]1[*]
Unknown FCFP_6 feature: 1109236509: [*]\C=C\[C@@H](O)CC([*])[*]
Unknown FCFP_6 feature: 999951681: [*][C@H]1[*]C[C@H](O)C=C1C=[*]
Unknown FCFP_6 feature: -1297359510: [*][C@H]1[*][C@H]([*])[C@@H]2[C@@H]([*])[*]C=CC2=C1
Unknown FCFP_6 feature: -524553890: [*]\C=C/1\C=C[C@H]([*])[*][C@H]1[*]
Unknown FCFP_6 feature: -528918648: [*][C@@H]1[*]C(=[*])C=C[C@@H]1C
Unknown FCFP_6 feature: -1061645184: [*]C[C@H]1[C@@H]([*])[*]=CC2=C[*]C[C@H](O[*])[C@H]12
Unknown FCFP_6 feature: 815306092: [*]C[C@@H]1[C@@H]([*])[*]C=C[C@@H]1C
Unknown FCFP_6 feature: 1255324847: [*]CC[C@H]1[C@@H](C)C=[*]C(=[*])[C@@H]1C([*])[*]
Unknown FCFP_6 feature: -55265897: [*]C([*])CCC(C([*])[*])C([*])[*]
Unknown FCFP_6 feature: 1242035682: [*]C([*])C[C@@H](O)CC(=[*])[*]
Unknown FCFP_6 feature: 349851805: [*]C[C@@H](O)C[C@@H](O)C[*]
Unknown FCFP_6 feature: 351479548: [*]C[C@@H](O)CC(=O)O
Unknown FCFP_6 feature: 394124770: [*]C([*])CC(=O)O
Unknown FCFP_6 feature: -821958611: [*]C([*])[C@H]1[C@H](C[C@H]([*])[*]=C1[*])OC(=[*])[*]
Unknown FCFP_6 feature: -428284881: [*]C[C@H](OC(=O)C([*])[*])C([*])[*]
Unknown FCFP_6 feature: -27580397: [*]OC(=O)[C@@H](C)CC
Unknown FCFP_6 feature: 1443450214: [*]C([*])[C@H]1[C@H](C[C@H](O)C=C1[*])OC(=[*])[*]
Unknown FCFP_6 feature: 616505350: [*]O[C@H]1C[C@H](O)C=C(C=[*])[C@H]1[*]
Unknown FCFP_6 feature: -15293654: [*][C@H]1[*]C=CC2=C[C@@H](O)C[C@H]([*])[C@H]12
Unknown FCFP_6 feature: 1914694802: [*]C[C@H]1[C@@H]([*])C=CC2=C[C@@H](O)C[C@H](O[*])[C@H]12
Unknown FCFP_6 feature: -956998180: [*][C@H]1[*][C@H]([*])[C@@H]2[C@@H]([*])[C@@H](C)C=CC2=C1
Unknown FCFP_6 feature: 452965337: [*]C[C@H]1[C@@H](C)C=C\C(=C\[*])\[C@@H]1[*]
Unknown FCFP_6 feature: -61512006: [*]CC[C@H]1[C@@H](C)C=CC2=C[C@@H]([*])C[C@H](OC(=[*])[*])[C@H]12
Unknown FCFP_6 feature: 834794214: [*]CC[C@H]1[C@@H](C)C=CC(=[*])[C@@H]1C([*])[*]
Unknown FCFP_6 feature: 244727438: [*]O[C@H]1C[*]C=C2C=C[C@H](C)[C@H](CCC([*])[*])[C@@H]12
Unknown FCFP_6 feature: -364000417: [*]C[C@H](O)CC[C@H]1[C@@H](C)C=[*]C(=[*])[C@@H]1C([*])[*]
Unknown FCFP_6 feature: 1300040454: [*]C([*])C[C@H](O)CCC(C([*])[*])C([*])[*]
Unknown FCFP_6 feature: 104399569: [*]C[C@H](O)C[C@H](O)CCC([*])[*]
Unknown FCFP_6 feature: 1912284788: [*]CC[C@@H](O)C[C@@H](O)CC(=[*])[*]
Unknown FCFP_6 feature: 145442229: [*]C[C@@H](O)C[C@@H](O)CC(=O)O
Unknown FCFP_6 feature: -1165103109: [*]C([*])C[C@@H](O)CC(=O)O
Unknown FCFP_6 feature: 438497839: [*]C[C@H]1[C@@H]([*])[*]=CC2=C[C@@H](O)C[C@H](OC(=O)C([*])[*])[C@H]12
Unknown FCFP_6 feature: -1265794410: [*]C[C@H](C)C(=O)O[C@H]1C[C@H]([*])[*]=C([*])[C@H]1C([*])[*]
Unknown FCFP_6 feature: 516359429: [*]C[C@H](OC(=O)[C@@H](C)CC)C([*])[*]
Unknown FCFP_6 feature: 1704339186: [*]C([*])OC(=O)[C@@H](C)CC
Missing FCFP_6 feature: 16: [*]:[cH]:[*] (count=1 in all training samples).

> <Lysomotrophic Nadanciva_Applicability#MD>
17.4240960591668

> <Lysomotrophic Nadanciva_Applicability#MDpvalue>
1

> <Lysomotrophic Nadanciva_ClosestDistance>
0.900650877321263

> <Lysomotrophic Nadanciva_ClosestPredictedValue>
-28.8407

> <Lysomotrophic Nadanciva_ClosestSample>
Lisinopril

> <Lysomotrophic Nadanciva_ClosestValue>
Baseline

> <Name 2>
pravastatin

$$$$
rosuvastatin
  SciTegic09101421012D

 33 34  0  0  0  0            999 V2000
    3.2977   -8.1027    0.0000 C   0  0
    2.0032   -8.8604    0.0000 C   0  0
    3.2977  -11.1180    0.0000 C   0  0
    4.6080   -8.8604    0.0000 C   0  0
    2.0032  -10.3602    0.0000 N   0  0
    4.6080  -10.3602    0.0000 N   0  0
    5.9026   -8.1027    0.0000 C   0  0
    7.2127   -5.8610    0.0000 C   0  0
    5.9026   -6.6030    0.0000 C   0  0
    7.2127   -8.8604    0.0000 C   0  0
    8.5073   -8.1027    0.0000 C   0  0
    8.5073   -6.6030    0.0000 C   0  0
    9.8176   -5.8610    0.0000 F   0  0
    0.6930   -8.1027    0.0000 C   0  0
   -0.6015   -8.8604    0.0000 C   0  0
    0.6930   -6.6030    0.0000 C   0  0
    3.2977  -12.6176    0.0000 N   0  0
    2.0032  -13.3754    0.0000 C   0  0
    4.6080  -14.8751    0.0000 C   0  0
    4.6080  -13.3754    0.0000 S   0  0
    5.6657  -12.3019    0.0000 O   0  0
    6.0604  -13.7542    0.0000 O   0  0
    3.2977   -6.6030    0.0000 C   0  0
    4.6080   -5.8610    0.0000 C   0  0
    4.6080   -4.3455    0.0000 C   0  0  2  0  0  0
    5.9026   -3.6035    0.0000 C   0  0
    5.9026   -2.0881    0.0000 C   0  0  2  0  0  0
    7.2127   -1.3461    0.0000 C   0  0
    3.2977   -3.6035    0.0000 O   0  0
    4.6080   -1.3461    0.0000 O   0  0
    7.2127    0.1536    0.0000 C   0  0
    5.9026    0.9114    0.0000 O   0  0
    8.5073    0.9114    0.0000 O   0  0
  1  2  2  0
  1  4  1  0
  1 23  1  0
  2  5  1  0
  2 14  1  0
  3  5  2  0
  3  6  1  0
  3 17  1  0
  4  6  2  0
  4  7  1  0
  7  9  1  0
  7 10  2  0
  8  9  2  0
  8 12  1  0
 10 11  1  0
 11 12  2  0
 12 13  1  0
 14 15  1  0
 14 16  1  0
 17 20  1  0
 17 18  1  0
 19 20  1  0
 20 21  2  0
 20 22  2  0
 23 24  2  0
 24 25  1  0
 25 26  1  0
 25 29  1  1
 26 27  1  0
 27 28  1  0
 27 30  1  1
 28 31  1  0
 31 33  1  0
 31 32  2  0
M  END
> <Name>
rosuvastatin

> <Lysotracker red IC50 uM>
>500

> <cytotox LDH>
N

> <Active>
0

> <ALogP>
2.427

> <Molecular_Weight>
481.53762

> <Num_AromaticRings>
2

> <Num_H_Acceptors>
8

> <Num_H_Donors>
3

> <Num_Rings>
2

> <Num_RotatableBonds>
10

> <Molecular_FractionalPolarSurfaceArea>
0.299

> <Lysomotrophic Nadanciva>
-5.18356171519575

> <Lysomotrophic Nadanciva#Enrichment>
0.767954075725078

> <Lysomotrophic Nadanciva#EstPGood>
0.44157359354192

> <Lysomotrophic Nadanciva#Prediction>
false

> <Lysomotrophic Nadanciva_Applicability>
All properties and OPS components are within expected ranges.
Unknown FCFP_6 feature: -1410079687: [*]N([*])[c](:n:[*]):n:[*]
Unknown FCFP_6 feature: 1018882710: [*]N([*])S(=O)(=O)C
Unknown FCFP_6 feature: 161202968: [*]\C=C\[c]1:[c](:n:[*]:n:[c]:1[c](:[*]):[*])C([*])[*]
Unknown FCFP_6 feature: -1503883530: [*][c]1:[*]:[c]([*]):[c](C=[*]):[c](:n:1)C(C)C
Unknown FCFP_6 feature: -939475899: [*][c]1:[*]:[c]([*]):n:[c](:n:1)N(C)S(=[*])(=[*])[*]
Unknown FCFP_6 feature: -222683903: [*][c]1:[*]:[c]([*]):[c](C=[*]):[c](:n:1)[c](:[cH]:[*]):[cH]:[*]
Unknown FCFP_6 feature: -1460413423: [*]C([*])[c]1:n:[c](:n:[*]:[c]:1[*])N([*])[*]
Unknown FCFP_6 feature: -1045320792: [*]N([*])[c]1:n:[*]:[c]([*]):[c](:n:1)[c](:[*]):[*]
Unknown FCFP_6 feature: -260991129: [*]n1:[*]:[*]:[c]([*]):[c]:1C(C)C
Unknown FCFP_6 feature: -568359253: [*]:n:[c](:n:[*])N(C)S(=O)(=O)C
Unknown FCFP_6 feature: 274564616: [*]:[c](:[*])N(C)S(=O)(=O)C
Unknown FCFP_6 feature: -146015125: [*]C([*])\C=C\[c](:[c]([*]):[*]):[c]([*]):[*]
Unknown FCFP_6 feature: -2132260269: [*]C[C@H](O)\C=C\[c](:[*]):[*]
Unknown FCFP_6 feature: 1109236509: [*]\C=C\[C@@H](O)CC([*])[*]
Unknown FCFP_6 feature: 349851805: [*]C[C@@H](O)C[C@@H](O)C[*]
Unknown FCFP_6 feature: 1242035682: [*]C([*])C[C@@H](O)CC(=[*])[*]
Unknown FCFP_6 feature: 351479548: [*]C[C@@H](O)CC(=O)O
Unknown FCFP_6 feature: 394124770: [*]C([*])CC(=O)O
Unknown FCFP_6 feature: -1340764326: [*]C([*])\C=C\[c]1:[c](:n:[c]([*]):n:[c]:1[c](:[cH]:[*]):[cH]:[*])C(C)C
Unknown FCFP_6 feature: 1894510006: [*]\C=C\[c]1:[c](:n:[c](:n:[c]:1[c](:[*]):[*])N([*])[*])C(C)C
Unknown FCFP_6 feature: 2066894446: [*]C([*])[c]1:n:[c](:n:[c]([c](:[*]):[*]):[c]:1[*])N(C)S(=O)(=O)C
Unknown FCFP_6 feature: 157172645: [*]\C=C\[c]1:[c](:n:[c](:n:[c]:1[c]2:[cH]:[cH]:[*]:[cH]:[cH]:2)N([*])[*])C([*])[*]
Unknown FCFP_6 feature: -2003475922: [*][c]1:n:[c](:n:[c](C(C)C):[c]:1C=[*])N(C)S(=[*])(=[*])[*]
Unknown FCFP_6 feature: 1235691635: [*][c]1:n:[c](:n:[c]([c](:[cH]:[*]):[cH]:[*]):[c]:1C=[*])N(C)S(=[*])(=[*])[*]
Unknown FCFP_6 feature: 362731743: [*][c]1:[cH]:[cH]:[c](:[cH]:[cH]:1)[c]2:n:[c]([*]):[*]:[c]([*]):[c]:2C=[*]
Unknown FCFP_6 feature: 565114151: [*]:[c](:[*])[c]1:[cH]:[cH]:[c](F):[cH]:[cH]:1
Unknown FCFP_6 feature: -280173323: [*]n1:[*]:[*]:[c]([*]):[c]:1[c]2:[cH]:[cH]:[c](F):[cH]:[cH]:2
Unknown FCFP_6 feature: 1746707284: [*][c]1:[*]:[c]([*]):n:[c](:n:1)N(C)S(=O)(=O)C
Unknown FCFP_6 feature: 1581619021: [*]C[C@H](O)\C=C\[c]1:[c](:n:[*]:n:[c]:1[c](:[*]):[*])C([*])[*]
Unknown FCFP_6 feature: 1759916837: [*]C([*])C[C@H](O)\C=C\[c](:[c]([*]):[*]):[c]([*]):[*]
Unknown FCFP_6 feature: -1741347080: [*]C[C@H](O)C[C@H](O)\C=C\[c](:[*]):[*]
Unknown FCFP_6 feature: 915819681: [*]\C=C\[C@@H](O)C[C@@H](O)CC(=[*])[*]
Unknown FCFP_6 feature: 145442229: [*]C[C@@H](O)C[C@@H](O)CC(=O)O
Unknown FCFP_6 feature: -1165103109: [*]C([*])C[C@@H](O)CC(=O)O

> <Lysomotrophic Nadanciva_Applicability#MD>
12.7585044450195

> <Lysomotrophic Nadanciva_Applicability#MDpvalue>
1

> <Lysomotrophic Nadanciva_ClosestDistance>
0.82761430879222

> <Lysomotrophic Nadanciva_ClosestPredictedValue>
3.37339

> <Lysomotrophic Nadanciva_ClosestSample>
nicardipine

> <Lysomotrophic Nadanciva_ClosestValue>
Good

> <Name 2>
rosuvastatin

$$$$
amodiaquine
  SciTegic09101421012D

 25 27  0  0  0  0            999 V2000
   -0.9330   -4.9772    0.0000 Cl  0  0
   10.8437    0.3144    0.0000 O   0  0
    5.6306   -2.7161    0.0000 N   0  0
    1.7050   -0.4550    0.0000 N   0  0
   12.1313   -1.9625    0.0000 N   0  0
    2.9926   -2.7161    0.0000 C   0  0
    4.3586   -1.9625    0.0000 C   0  0
    1.7050   -1.9625    0.0000 C   0  0
    6.9181   -1.9625    0.0000 C   0  0
    9.5561   -1.9625    0.0000 C   0  0
    2.9926   -4.2236    0.0000 C   0  0
    4.3586   -0.4550    0.0000 C   0  0
    0.4331   -2.7161    0.0000 C   0  0
    8.2057   -2.7161    0.0000 C   0  0
    9.5561   -0.4550    0.0000 C   0  0
    0.4331   -4.2236    0.0000 C   0  0
    6.9181   -0.4550    0.0000 C   0  0
    2.9926    0.3144    0.0000 C   0  0
    1.7050   -4.9772    0.0000 C   0  0
    8.2057    0.3144    0.0000 C   0  0
   10.8437   -2.7161    0.0000 C   0  0
   13.4817   -2.7161    0.0000 C   0  0
   12.1313   -0.4550    0.0000 C   0  0
   14.7693   -1.9625    0.0000 C   0  0
   13.4032    0.3144    0.0000 C   0  0
  1 16  1  0
  2 15  1  0
  3  7  1  0
  3  9  1  0
  4  8  1  0
  4 18  2  0
  5 21  1  0
  5 22  1  0
  5 23  1  0
  6  7  1  0
  6  8  2  0
  6 11  1  0
  7 12  2  0
  8 13  1  0
  9 14  1  0
  9 17  2  0
 10 14  2  0
 10 15  1  0
 10 21  1  0
 11 19  2  0
 12 18  1  0
 13 16  2  0
 15 20  2  0
 16 19  1  0
 17 20  1  0
 22 24  1  0
 23 25  1  0
M  END
> <Name>
amodiaquine

> <Lysotracker red IC50 uM>
>500

> <cytotox LDH>
N

> <Active>
1

> <ALogP>
4.76

> <Molecular_Weight>
355.86117

> <Num_AromaticRings>
3

> <Num_H_Acceptors>
4

> <Num_H_Donors>
2

> <Num_Rings>
3

> <Num_RotatableBonds>
6

> <Molecular_FractionalPolarSurfaceArea>
0.131

> <Lysomotrophic Nadanciva>
1.21482582696572

> <Lysomotrophic Nadanciva#Enrichment>
1.15788518872155

> <Lysomotrophic Nadanciva#EstPGood>
0.665783983514893

> <Lysomotrophic Nadanciva#Prediction>
true

> <Lysomotrophic Nadanciva_Applicability>
All properties and OPS components are within expected ranges.
Unknown FCFP_6 feature: -549108873: [*]:[c](:[*])O
Unknown FCFP_6 feature: 74595001: [*][c](:[*]):[c](O):[cH]:[*]
Unknown FCFP_6 feature: 1557075936: [*][c](:[*]):[c](N[c](:[c]([*]):[*]):[c]([*]):[*]):[cH]:[*]
Unknown FCFP_6 feature: -1472001734: [*]:[cH]:[c]1:[c](N[c](:[*]):[*]):[cH]:[cH]:[*]:[c]:1:[*]
Unknown FCFP_6 feature: 350072712: [*]N([*])C[c]1:[cH]:[c]([*]):[*]:[cH]:[c]:1O
Unknown FCFP_6 feature: -1604301295: [*]C[c]1:[cH]:[*]:[cH]:[cH]:[c]:1O
Unknown FCFP_6 feature: 946589555: [*][c]1:[*]:[c]([*]):[c](O):[cH]:[cH]:1
Unknown FCFP_6 feature: -1068880134: [*][c]1:[*]:[cH]:[cH]:[c](N[c]2:[cH]:[cH]:[*]:[c](:[*]):[c]:2:[cH]:[*]):[cH]:1
Unknown FCFP_6 feature: 979617303: [*][c](:[*]):[c](CN(CC)CC):[cH]:[*]
Unknown FCFP_6 feature: 1820377379: [*][c]1:[cH]:[cH]:[c]2:[c](N[c](:[*]):[*]):[cH]:[cH]:n:[c]:2:[cH]:1
Unknown FCFP_6 feature: -256481624: [*]:[cH]:[c](N[c]1:[cH]:[cH]:n:[c]2:[cH]:[*]:[cH]:[cH]:[c]:1:2):[cH]:[*]
Unknown FCFP_6 feature: -2083162537: [*]C[c]1:[cH]:[c](N[c](:[cH]:[*]):[c](:[*]):[*]):[cH]:[cH]:[c]:1[*]
Unknown FCFP_6 feature: 1337501409: [*]CN(C[*])C[c]1:[cH]:[c](N[*]):[cH]:[cH]:[c]:1O
Unknown FCFP_6 feature: 908213772: [*]:[cH]:[c]1:[c](N[c](:[*]):[*]):[cH]:[cH]:n:[c]:1:[*]
Unknown FCFP_6 feature: 1591440385: [*]N([*])C[c]1:[cH]:[c](N[c](:[*]):[*]):[cH]:[cH]:[c]:1O
Unknown FCFP_6 feature: 1432860970: [*]N([*])C[c]1:[cH]:[c]([*]):[cH]:[cH]:[c]:1O
Unknown FCFP_6 feature: 415343104: [*][c]1:[cH]:[c](N[c](:[*]):[*]):[cH]:[cH]:[c]:1O
Unknown FCFP_6 feature: -309431968: [*]C[c]1:[cH]:[c](N[*]):[cH]:[cH]:[c]:1O
Unknown FCFP_6 feature: 1024167394: [*][c]1:[*]:[cH]:[c](O):[c](CN(CC)CC):[cH]:1

> <Lysomotrophic Nadanciva_Applicability#MD>
14.1844134414517

> <Lysomotrophic Nadanciva_Applicability#MDpvalue>
1

> <Lysomotrophic Nadanciva_ClosestDistance>
0.622095414481783

> <Lysomotrophic Nadanciva_ClosestPredictedValue>
8.17247

> <Lysomotrophic Nadanciva_ClosestSample>
Chloroquine

> <Lysomotrophic Nadanciva_ClosestValue>
Good

> <Name 2>
amodiaquine

$$$$
destromethorphan
  SciTegic09101421012D

 21 24  0  0  0  0            999 V2000
    0.5922    0.5707    0.0000 O   0  0
    7.0356   -4.7080    0.0000 N   0  0
    3.1470   -3.9378    0.0000 C   0  0  1  0  0  0
    4.4432   -4.6893    0.0000 C   0  0  1  0  0  0
    3.1470   -2.4444    0.0000 C   0  0
    5.7394   -3.9566    0.0000 C   0  0  2  0  0  0
    4.4526   -1.7024    0.0000 C   0  0
    4.2178   -2.8764    0.0000 C   0  0
    1.8415   -4.6893    0.0000 C   0  0
    5.7488   -2.4631    0.0000 C   0  0
    4.4432   -6.1826    0.0000 C   0  0
    1.8696   -1.6929    0.0000 C   0  0
    7.0168   -2.8671    0.0000 C   0  0
    4.4714   -0.2182    0.0000 C   0  0
    1.8415   -6.1826    0.0000 C   0  0
    3.1470   -6.9435    0.0000 C   0  0
    1.8884   -0.1901    0.0000 C   0  0
    3.1846    0.5425    0.0000 C   0  0
    8.6794   -4.6893    0.0000 C   0  0
   -0.7134   -0.1713    0.0000 C   0  0
    5.5703   -5.5252    0.0000 H   0  0
  1 17  1  0
  1 20  1  0
  6  2  1  6
  2 13  1  0
  2 19  1  0
  3  4  1  0
  3  5  1  0
  3  8  1  6
  3  9  1  0
  4  6  1  0
  4 11  1  0
  4 21  1  6
  5  7  2  0
  5 12  1  0
  6 10  1  0
  7 10  1  0
  7 14  1  0
  8 13  1  0
  9 15  1  0
 11 16  1  0
 12 17  2  0
 14 18  2  0
 15 16  1  0
 17 18  1  0
M  END
> <Name>
destromethorphan

> <Lysotracker red IC50 uM>
>500

> <cytotox LDH>
N

> <Active>
1

> <ALogP>
3.674

> <Molecular_Weight>
271.3972

> <Num_AromaticRings>
1

> <Num_H_Acceptors>
2

> <Num_H_Donors>
0

> <Num_Rings>
4

> <Num_RotatableBonds>
1

> <Molecular_FractionalPolarSurfaceArea>
0.043

> <Lysomotrophic Nadanciva>
2.78844270860228

> <Lysomotrophic Nadanciva#Enrichment>
1.24136320988023

> <Lysomotrophic Nadanciva#EstPGood>
0.713783845681131

> <Lysomotrophic Nadanciva#Prediction>
true

> <Lysomotrophic Nadanciva_Applicability>
Num_RotatableBonds out of range. Value: 1. Training min, max, mean, SD: 2, 12, 6.025, 2.778.
Unknown FCFP_6 feature: -836633685: [*]CC(C[*])(C([*])[*])[c](:[*]):[*]
Unknown FCFP_6 feature: 1222024273: [*]:[cH]:[c]1:[c](:[*])[*][C@@H]2[*]CC[C@]13CC[*]C[C@H]23
Unknown FCFP_6 feature: -2004250264: [*]N1[*]C[C@@]23C[*]CC[C@@H]2[C@@H]1C[*]:[c]3:[*]
Unknown FCFP_6 feature: -1156316912: [*]CC1(C[*])[C@H]([*])[*]C[c]2:[cH]:[*]:[c]([*]):[cH]:[c]1:2
Unknown FCFP_6 feature: 1412554176: [*]C[C@@H]1[C@@H]2C[c](:[*]):[*][C@@]1([*])[*]CN2C
Unknown FCFP_6 feature: 237434970: [*]C[C@@]1(CCN([*])[*][C@H]1[*])[c](:[*]):[*]
Unknown FCFP_6 feature: 985033767: [*]C[C@]1(CCC[*][C@@H]1[*])[c](:[*]):[*]
Unknown FCFP_6 feature: -2000873681: [*][C@H]1[*][c](:[*]):[c](C[C@@H]1N([*])[*]):[cH]:[*]
Unknown FCFP_6 feature: -55265897: [*]C([*])CCC(C([*])[*])C([*])[*]
Unknown FCFP_6 feature: 1676877079: [*]O[c]1:[cH]:[*]:[c]([*]):[c](:[cH]:1)C([*])([*])[*]
Unknown FCFP_6 feature: -1874099913: [*]C[C@@H]1[C@@H]2C[c](:[*]):[*][C@@]1([*])CCN2C
Unknown FCFP_6 feature: -1375038539: [*]N1CC[C@@]23CCCC[C@@H]2[C@@H]1C[c]4:[cH]:[*]:[c]([*]):[cH]:[c]3:4
Unknown FCFP_6 feature: -92745217: [*]:[cH]:[c]1:[c](:[*])C[C@H]2[C@H]3CCCC[C@@]13CCN2C
Unknown FCFP_6 feature: -1955001278: [*]O[c]1:[cH]:[cH]:[c]2C[C@@H]3[*]CC[C@]4(CC[*]C[C@H]34)[c]:2:[cH]:1
Unknown FCFP_6 feature: 977526799: [*]:[cH]:[c]1C[C@H]2[C@H]3CC[*]C[C@@]3(CCN2C)[c]:1:[*]
Unknown FCFP_6 feature: 799974697: [*]C[C@@]12C[*]N([*])[C@@H](C[c]3:[cH]:[cH]:[c]([*]):[cH]:[c]1:3)[C@H]2[*]
Unknown FCFP_6 feature: -1544285963: [*]:[cH]:[c]1:[c](:[*])[*][C@H]2[C@H]3C[*]CC[C@@]13CCN2C
Unknown FCFP_6 feature: -1329557288: [*]:[cH]:[c]1:[c](:[*])[*][C@@H]2[*]CC[C@]13CCCC[C@H]23
Unknown FCFP_6 feature: 63257471: [*]C[C@@H]1[C@@H]2C[c]3:[cH]:[cH]:[*]:[cH]:[c]:3[C@@]1([*])[*]CN2C
Unknown FCFP_6 feature: -152205412: [*]N1[*]C[C@@]23CCCC[C@@H]2[C@@H]1C[*]:[c]3:[*]
Unknown FCFP_6 feature: 1173923152: [*]CC1(C[*])[C@H]([*])[*]C[c]2:[cH]:[cH]:[c](OC):[cH]:[c]1:2
Unknown FCFP_6 feature: 447374186: [*]C[C@@]12CCN(C)[C@@H](C[*]:[c]1:[*])[C@H]2[*]
Unknown FCFP_6 feature: -1944451100: [*]O[c]1:[cH]:[cH]:[c]2C[C@H]([*])[*]C([*])([*])[c]:2:[cH]:1
Unknown FCFP_6 feature: -1525736558: [*]C[C@]1(CCCC[C@@H]1[*])[c](:[*]):[*]
Unknown FCFP_6 feature: -1529004787: [*]C([*])[C@H]1CCCCC1([*])[*]
Unknown FCFP_6 feature: -1757681964: [*][c]1:[cH]:[cH]:[c](OC):[cH]:[c]:1C([*])([*])[*]

> <Lysomotrophic Nadanciva_Applicability#MD>
11.4230315139248

> <Lysomotrophic Nadanciva_Applicability#MDpvalue>
1

> <Lysomotrophic Nadanciva_ClosestDistance>
0.703671265253161

> <Lysomotrophic Nadanciva_ClosestPredictedValue>
10.9508

> <Lysomotrophic Nadanciva_ClosestSample>
imipramine

> <Lysomotrophic Nadanciva_ClosestValue>
Good

> <Name 2>
destromethorphan

$$$$
labetolol
  SciTegic09101421012D

 24 25  0  0  0  0            999 V2000
    5.8394   -3.7013    0.0000 O   0  0
   -0.6558   -1.4508    0.0000 O   0  0
    0.6403    0.7998    0.0000 O   0  0
    5.8394   -6.6925    0.0000 N   0  0
    3.2328    0.7998    0.0000 N   0  0
    5.8394   -8.2024    0.0000 C   0  0
    7.1356   -8.9431    0.0000 C   0  0
    4.5432   -5.9518    0.0000 C   0  0
    7.1356  -10.4387    0.0000 C   0  0
    4.5432   -4.4420    0.0000 C   0  0
    4.5432   -8.9431    0.0000 C   0  0
    3.2328   -3.7013    0.0000 C   0  0
    8.4318  -11.1936    0.0000 C   0  0
    3.2328   -2.2057    0.0000 C   0  0
    1.9366   -4.4420    0.0000 C   0  0
    9.7281  -10.4387    0.0000 C   0  0
    8.4318  -12.6892    0.0000 C   0  0
    1.9366   -1.4508    0.0000 C   0  0
    0.6403   -3.7013    0.0000 C   0  0
    0.6403   -2.2057    0.0000 C   0  0
   11.0242  -11.1936    0.0000 C   0  0
    9.7281  -13.4442    0.0000 C   0  0
   11.0242  -12.6892    0.0000 C   0  0
    1.9366    0.0448    0.0000 C   0  0
  1 10  1  0
  2 20  1  0
  3 24  2  0
  4  6  1  0
  4  8  1  0
  5 24  1  0
  6  7  1  0
  6 11  1  0
  7  9  1  0
  8 10  1  0
  9 13  1  0
 10 12  1  0
 12 14  2  0
 12 15  1  0
 13 16  2  0
 13 17  1  0
 14 18  1  0
 15 19  2  0
 16 21  1  0
 17 22  2  0
 18 20  2  0
 18 24  1  0
 19 20  1  0
 21 23  2  0
 22 23  1  0
M  END
> <Name>
labetolol

> <Lysotracker red IC50 uM>
>500

> <cytotox LDH>
N

> <Active>
1

> <ALogP>
2.355

> <Molecular_Weight>
328.40546

> <Num_AromaticRings>
2

> <Num_H_Acceptors>
4

> <Num_H_Donors>
4

> <Num_Rings>
2

> <Num_RotatableBonds>
8

> <Molecular_FractionalPolarSurfaceArea>
0.271

> <Lysomotrophic Nadanciva>
-5.98472568429853

> <Lysomotrophic Nadanciva#Enrichment>
0.716716458289848

> <Lysomotrophic Nadanciva#EstPGood>
0.412111963516662

> <Lysomotrophic Nadanciva#Prediction>
false

> <Lysomotrophic Nadanciva_Applicability>
All properties and OPS components are within expected ranges.
Unknown FCFP_6 feature: -549108873: [*]:[c](:[*])O
Unknown FCFP_6 feature: 74595001: [*][c](:[*]):[c](O):[cH]:[*]
Unknown FCFP_6 feature: 672759218: [*]CCC(C)NC[*]
Unknown FCFP_6 feature: 1033402365: [*]C([*])NCC(O)[c](:[*]):[*]
Unknown FCFP_6 feature: -236253365: [*]NCC(O)[c](:[cH]:[*]):[cH]:[*]
Unknown FCFP_6 feature: -1931573337: [*]CC(O)[c]1:[cH]:[cH]:[*]:[c]([*]):[cH]:1
Unknown FCFP_6 feature: -451251206: [*]C([*])[c]1:[cH]:[*]:[cH]:[c](:[cH]:1)C(=[*])[*]
Unknown FCFP_6 feature: 1968778861: [*][c]1:[*]:[cH]:[c](O):[c](:[cH]:1)C(=O)N
Unknown FCFP_6 feature: 946589555: [*][c]1:[*]:[c]([*]):[c](O):[cH]:[cH]:1
Unknown FCFP_6 feature: -1604301295: [*]C[c]1:[cH]:[*]:[cH]:[cH]:[c]:1O
Unknown FCFP_6 feature: -1094243697: [*][c](:[*]):[c](:[cH]:[*])C(=O)N
Unknown FCFP_6 feature: 697809560: [*]CCC(C)NCC(O)[c](:[*]):[*]
Unknown FCFP_6 feature: -633246997: [*]C([*])CNC(C)CC[c](:[*]):[*]
Unknown FCFP_6 feature: -1107435771: [*]CNC(C)CC[c](:[cH]:[*]):[cH]:[*]
Unknown FCFP_6 feature: -1347451440: [*]CC(C)NCC(O)[c](:[cH]:[*]):[cH]:[*]
Unknown FCFP_6 feature: -1640890304: [*]C([*])NCC(O)[c]1:[cH]:[cH]:[*]:[c]([*]):[cH]:1
Unknown FCFP_6 feature: -616387365: [*]NCC(O)[c]1:[cH]:[cH]:[c]([*]):[c](:[cH]:1)C(=[*])[*]
Unknown FCFP_6 feature: 585190490: [*]CC(O)[c]1:[cH]:[cH]:[c](O):[c](:[cH]:1)C(=O)N
Unknown FCFP_6 feature: -1079932543: [*]CC(O)[c]1:[cH]:[cH]:[c](O):[c]([*]):[cH]:1
Unknown FCFP_6 feature: 2145935494: [*]C([*])[c]1:[cH]:[cH]:[c](O):[c](:[cH]:1)C(=O)N
Unknown FCFP_6 feature: -306804326: [*]C([*])[c]1:[cH]:[cH]:[c](O):[c](:[cH]:1)C(=[*])[*]
Unknown FCFP_6 feature: 1643579715: [*][c]1:[cH]:[cH]:[c](O):[c](:[cH]:1)C(=O)N

> <Lysomotrophic Nadanciva_Applicability#MD>
12.7938729946886

> <Lysomotrophic Nadanciva_Applicability#MDpvalue>
1

> <Lysomotrophic Nadanciva_ClosestDistance>
0.662523485250188

> <Lysomotrophic Nadanciva_ClosestPredictedValue>
-15.0565

> <Lysomotrophic Nadanciva_ClosestSample>
nadolol

> <Lysomotrophic Nadanciva_ClosestValue>
Baseline

> <Name 2>
labetolol

$$$$
acetaminophen
  SciTegic09101421012D

 11 11  0  0  0  0            999 V2000
    4.9503   -6.1266    0.0000 C   0  0
    4.2035   -4.8279    0.0000 C   0  0
    4.9503   -3.5291    0.0000 O   0  0
    2.7035   -4.8279    0.0000 N   0  0
    1.9502   -3.5291    0.0000 C   0  0
    2.7035   -2.2304    0.0000 C   0  0
    1.9502   -0.9316    0.0000 C   0  0
    0.4501   -0.9316    0.0000 C   0  0
   -0.2966   -2.2304    0.0000 C   0  0
    0.4501   -3.5291    0.0000 C   0  0
   -0.2966    0.3671    0.0000 O   0  0
  1  2  1  0
  2  3  2  0
  2  4  1  0
  4  5  1  0
  5  6  1  0
  5 10  2  0
  6  7  2  0
  7  8  1  0
  8  9  2  0
  8 11  1  0
  9 10  1  0
M  END
> <Name>
acetaminophen

> <Lysotracker red IC50 uM>
>500

> <cytotox LDH>
N

> <Active>
0

> <ALogP>
0.708

> <Molecular_Weight>
151.16256

> <Num_AromaticRings>
1

> <Num_H_Acceptors>
2

> <Num_H_Donors>
2

> <Num_Rings>
1

> <Num_RotatableBonds>
1

> <Molecular_FractionalPolarSurfaceArea>
0.302

> <Lysomotrophic Nadanciva>
-5.46598263955865

> <Lysomotrophic Nadanciva#Enrichment>
0.749842181801151

> <Lysomotrophic Nadanciva#EstPGood>
0.431159254535662

> <Lysomotrophic Nadanciva#Prediction>
false

> <Lysomotrophic Nadanciva_Applicability>
Molecular_Weight out of range. Value: 151.16. Training min, max, mean, SD: 208.26, 645.31, 368.38, 97.79.
Num_RotatableBonds out of range. Value: 1. Training min, max, mean, SD: 2, 12, 6.025, 2.778.
Unknown FCFP_6 feature: 74595001: [*][c](:[*]):[c](O):[cH]:[*]
Unknown FCFP_6 feature: -549108873: [*]:[c](:[*])O
Unknown FCFP_6 feature: -1944671191: [*]:[c](:[*])NC(=O)C
Unknown FCFP_6 feature: 946589555: [*][c]1:[*]:[c]([*]):[c](O):[cH]:[cH]:1
Unknown FCFP_6 feature: -158888774: O[c]1:[cH]:[cH]:[*]:[cH]:[cH]:1
Unknown FCFP_6 feature: 1907952166: CC(=O)N[c]1:[cH]:[cH]:[*]:[cH]:[cH]:1
Unknown FCFP_6 feature: -451043714: [*][c]1:[cH]:[cH]:[c](NC(=O)C):[cH]:[cH]:1
Unknown FCFP_6 feature: -788757007: [*]C(=[*])N[c]1:[cH]:[cH]:[c](O):[cH]:[cH]:1
Unknown FCFP_6 feature: -1849978862: [*]N[c]1:[cH]:[cH]:[c](O):[cH]:[cH]:1
Unknown FCFP_6 feature: -1066794953: [*][c]1:[cH]:[cH]:[c](O):[cH]:[cH]:1

> <Lysomotrophic Nadanciva_Applicability#MD>
12.1400012185481

> <Lysomotrophic Nadanciva_Applicability#MDpvalue>
1

> <Lysomotrophic Nadanciva_ClosestDistance>
0.873419329739711

> <Lysomotrophic Nadanciva_ClosestPredictedValue>
-16.8667

> <Lysomotrophic Nadanciva_ClosestSample>
pilocarpine

> <Lysomotrophic Nadanciva_ClosestValue>
Baseline

> <Name 2>
acetaminophen

$$$$
cetirizine
  SciTegic09101421012D

 27 29  0  0  0  0            999 V2000
   -0.5150  -13.4366    0.0000 Cl  0  0
    5.9802   -2.1982    0.0000 O   0  0
    8.5726    0.8072    0.0000 O   0  0
    5.9802    0.8072    0.0000 O   0  0
    4.6840   -8.9356    0.0000 N   0  0
    4.6840   -5.9443    0.0000 N   0  0
    3.3735   -8.1949    0.0000 C   0  0
    5.9802   -8.1949    0.0000 C   0  0
    3.3735   -6.6851    0.0000 C   0  0
    5.9802   -6.6851    0.0000 C   0  0
    4.6840  -10.4312    0.0000 C   0  0
    4.6840   -4.4345    0.0000 C   0  0
    3.3735  -11.1862    0.0000 C   0  0
    5.9802  -11.1862    0.0000 C   0  0
    5.9802   -3.6938    0.0000 C   0  0
    3.3735  -12.6818    0.0000 C   0  0
    2.0774  -10.4312    0.0000 C   0  0
    7.2764  -10.4312    0.0000 C   0  0
    5.9802  -12.6818    0.0000 C   0  0
    2.0774  -13.4366    0.0000 C   0  0
    0.7812  -11.1862    0.0000 C   0  0
    8.5726  -11.1862    0.0000 C   0  0
    7.2764  -13.4366    0.0000 C   0  0
    0.7812  -12.6818    0.0000 C   0  0
    8.5726  -12.6818    0.0000 C   0  0
    7.2764   -1.4432    0.0000 C   0  0
    7.2764    0.0523    0.0000 C   0  0
  1 24  1  0
  2 15  1  0
  2 26  1  0
  3 27  1  0
  4 27  2  0
  5  7  1  0
  5  8  1  0
  5 11  1  0
  6  9  1  0
  6 10  1  0
  6 12  1  0
  7  9  1  0
  8 10  1  0
 11 13  1  0
 11 14  1  0
 12 15  1  0
 13 16  2  0
 13 17  1  0
 14 18  2  0
 14 19  1  0
 16 20  1  0
 17 21  2  0
 18 22  1  0
 19 23  2  0
 20 24  2  0
 21 24  1  0
 22 25  2  0
 23 25  1  0
 26 27  1  0
M  END
> <Name>
cetirizine

> <Lysotracker red IC50 uM>
>500

> <cytotox LDH>
N

> <Active>
0

> <ALogP>
0.453

> <Molecular_Weight>
388.8878

> <Num_AromaticRings>
2

> <Num_H_Acceptors>
5

> <Num_H_Donors>
1

> <Num_Rings>
3

> <Num_RotatableBonds>
8

> <Molecular_FractionalPolarSurfaceArea>
0.132

> <Lysomotrophic Nadanciva>
-1.30322425418175

> <Lysomotrophic Nadanciva#Enrichment>
1.01330253402784

> <Lysomotrophic Nadanciva#EstPGood>
0.582648957066008

> <Lysomotrophic Nadanciva#Prediction>
false

> <Lysomotrophic Nadanciva_Applicability>
All properties and OPS components are within expected ranges.
Unknown FCFP_6 feature: -929066189: [*]N([*])C([c](:[*]):[*])[c](:[*]):[*]
Unknown FCFP_6 feature: 1851872598: [*]:[c](:[*])C(N1CC[*]CC1)[c](:[*]):[*]
Unknown FCFP_6 feature: -1092669594: [*]CN(C[*])C([c](:[cH]:[*]):[cH]:[*])[c](:[cH]:[*]):[cH]:[*]
Unknown FCFP_6 feature: -469303379: [*]N([*])C([c](:[*]):[*])[c]1:[cH]:[cH]:[*]:[cH]:[cH]:1
Unknown FCFP_6 feature: -1780445063: [*]COCC(=O)O
Unknown FCFP_6 feature: 391100472: [*]OCC(=O)O
Unknown FCFP_6 feature: 274130681: [*]N([*])CCOCC(=O)O
Unknown FCFP_6 feature: 766609046: [*]N1CCN(CC1)C([c](:[cH]:[*]):[cH]:[*])[c](:[cH]:[*]):[cH]:[*]
Unknown FCFP_6 feature: -1126709297: [*]OCCN1CCN([*])CC1
Unknown FCFP_6 feature: 947261091: [*]CN1CCN(CC1)C([c](:[*]):[*])[c](:[*]):[*]
Unknown FCFP_6 feature: 447966750: [*]CCN1CCN(CC1)C([*])[*]
Unknown FCFP_6 feature: -2018389554: [*]1CCN(CC1)C([c]2:[cH]:[cH]:[*]:[cH]:[cH]:2)[c]3:[cH]:[cH]:[*]:[cH]:[cH]:3
Unknown FCFP_6 feature: 194702768: [*]CN(C[*])C([c](:[cH]:[*]):[cH]:[*])[c]1:[cH]:[cH]:[c]([*]):[cH]:[cH]:1
Unknown FCFP_6 feature: -2048892764: [*]N([*])C([c](:[*]):[*])[c]1:[cH]:[cH]:[c](Cl):[cH]:[cH]:1
Unknown FCFP_6 feature: -2046980226: [*]N([*])C([c](:[*]):[*])[c]1:[cH]:[cH]:[cH]:[cH]:[cH]:1
Unknown FCFP_6 feature: -1825180897: [*]CCOCC(=O)O

> <Lysomotrophic Nadanciva_Applicability#MD>
10.6742630624494

> <Lysomotrophic Nadanciva_Applicability#MDpvalue>
1

> <Lysomotrophic Nadanciva_ClosestDistance>
0.778123804170233

> <Lysomotrophic Nadanciva_ClosestPredictedValue>
-15.6319

> <Lysomotrophic Nadanciva_ClosestSample>
fluconazole

> <Lysomotrophic Nadanciva_ClosestValue>
Baseline

> <Name 2>
cetirizine

$$$$
raclopride
  SciTegic09101421012D

 23 24  0  0  0  0            999 V2000
    1.8207   -5.7315    0.0000 Cl  0  0
    7.0170   -5.7315    0.0000 Cl  0  0
    3.1199   -0.4814    0.0000 O   0  0
    1.8207   -2.7314    0.0000 O   0  0
    7.0170   -2.7314    0.0000 O   0  0
    7.1739    3.2605    0.0000 N   0  0
    5.7180   -0.4814    0.0000 N   0  0
    7.0170    1.7687    0.0000 C   0  0  1  0  0  0
    8.3874    1.1586    0.0000 C   0  0
    9.3911    2.2733    0.0000 C   0  0
    8.6411    3.5723    0.0000 C   0  0
    5.7180    1.0187    0.0000 C   0  0
    6.0591    4.2643    0.0000 C   0  0
    6.3709    5.7315    0.0000 C   0  0
    4.4189   -1.2314    0.0000 C   0  0
    4.4189   -2.7314    0.0000 C   0  0
    3.1199   -3.4814    0.0000 C   0  0
    5.7180   -3.4814    0.0000 C   0  0
    3.1199   -4.9815    0.0000 C   0  0
    5.7180   -4.9815    0.0000 C   0  0
    4.4189   -5.7315    0.0000 C   0  0
    0.5217   -3.4814    0.0000 C   0  0
    6.5233   -0.9464    0.0000 H   0  0
  1 19  1  0
  2 20  1  0
  3 15  2  0
  4 17  1  0
  4 22  1  0
  5 18  1  0
  6  8  1  0
  6 11  1  0
  6 13  1  0
  7 12  1  0
  7 15  1  0
  7 23  1  0
  8  9  1  0
  8 12  1  1
  9 10  1  0
 10 11  1  0
 13 14  1  0
 15 16  1  0
 16 17  1  0
 16 18  2  0
 17 19  2  0
 18 20  1  0
 19 21  1  0
 20 21  2  0
M  END
> <Name>
raclopride

> <Lysotracker red IC50 uM>
>500

> <cytotox LDH>
N

> <Active>
0

> <ALogP>
3.085

> <Molecular_Weight>
347.2369

> <Num_AromaticRings>
1

> <Num_H_Acceptors>
4

> <Num_H_Donors>
2

> <Num_Rings>
2

> <Num_RotatableBonds>
5

> <Molecular_FractionalPolarSurfaceArea>
0.178

> <Lysomotrophic Nadanciva>
-2.25372406028304

> <Lysomotrophic Nadanciva#Enrichment>
0.954823086389951

> <Lysomotrophic Nadanciva#EstPGood>
0.549023274674222

> <Lysomotrophic Nadanciva#Prediction>
false

> <Lysomotrophic Nadanciva_Applicability>
All properties and OPS components are within expected ranges.
Unknown FCFP_6 feature: -549108873: [*]:[c](:[*])O
Unknown FCFP_6 feature: 74595001: [*][c](:[*]):[c](O):[cH]:[*]
Unknown FCFP_6 feature: 1930426856: [*]CN1CCC[C@H]1CN[*]
Unknown FCFP_6 feature: 160713640: [*]N1[*][*]C[C@H]1CNC(=[*])[*]
Unknown FCFP_6 feature: 519006817: [*]NC(=O)[c]1:[c](O):[c]([*]):[*]:[c]([*]):[c]:1O[*]
Unknown FCFP_6 feature: -91240285: [*]C(=[*])[c]1:[c]([*]):[*]:[cH]:[c](Cl):[c]:1OC
Unknown FCFP_6 feature: -596347825: [*]C(=[*])[c]1:[c]([*]):[*]:[cH]:[c](Cl):[c]:1O
Unknown FCFP_6 feature: -790637521: [*][c]1:[*]:[c]([*]):[c](O):[c](Cl):[cH]:1
Unknown FCFP_6 feature: -1730660182: [*]NC[C@@H]1CCCN1CC
Unknown FCFP_6 feature: -184687044: [*]N1[*][*]C[C@H]1CNC(=O)[c](:[c]([*]):[*]):[c]([*]):[*]
Unknown FCFP_6 feature: -974819436: [*]C(=[*])NC[C@@H]1CCCN1CC
Unknown FCFP_6 feature: 340587796: [*]CN1CCC[C@H]1CN[*]
Unknown FCFP_6 feature: -1942151984: [*]C[C@@H]1CCCN1C[*]
Unknown FCFP_6 feature: 1795939176: [*]CN1CCC[C@H]1CNC(=O)[c](:[*]):[*]
Unknown FCFP_6 feature: 993612890: [*]O[c]1:[c]([*]):[*]:[c]([*]):[c](O):[c]:1C(=O)NCC([*])[*]
Unknown FCFP_6 feature: 93797806: [*]CNC(=O)[c]1:[c](O):[c](Cl):[cH]:[c](Cl):[c]:1OC
Unknown FCFP_6 feature: -560044464: [*]NC(=O)[c]1:[c](O):[c]([*]):[cH]:[c](Cl):[c]:1OC
Unknown FCFP_6 feature: 1743965159: [*]NC(=O)[c]1:[c](O):[c](Cl):[cH]:[c]([*]):[c]:1O[*]
Unknown FCFP_6 feature: 1475320201: [*]C(=[*])[c]1:[c]([*]):[c](Cl):[cH]:[c](Cl):[c]:1OC
Unknown FCFP_6 feature: 371186718: [*]C(=[*])[c]1:[c]([*]):[c](Cl):[cH]:[c](Cl):[c]:1O
Unknown FCFP_6 feature: 1697675293: [*]O[c]1:[c]([*]):[c](O):[c](Cl):[cH]:[c]:1Cl

> <Lysomotrophic Nadanciva_Applicability#MD>
10.3193926554093

> <Lysomotrophic Nadanciva_Applicability#MDpvalue>
1

> <Lysomotrophic Nadanciva_ClosestDistance>
0.700123840697654

> <Lysomotrophic Nadanciva_ClosestPredictedValue>
-14.5466

> <Lysomotrophic Nadanciva_ClosestSample>
sumatriptan

> <Lysomotrophic Nadanciva_ClosestValue>
Baseline

> <Name 2>
raclopride

$$$$
